REMARK  Name = SCH442416
REMARK  7 active torsions:
REMARK  status: ('A' for Active; 'I' for Inactive)
REMARK    1  A    between atoms: C_9  and  C_10
REMARK    2  A    between atoms: N_17  and  C_18
REMARK    3  A    between atoms: C_18  and  C_19
REMARK    4  A    between atoms: C_19  and  C_20
REMARK    5  A    between atoms: C_20  and  C_21
REMARK    6  A    between atoms: C_24  and  O_25
REMARK    7  A    between atoms: O_25  and  C_26
REMARK                            x       y       z     vdW  Elec       q    Type
REMARK                         _______ _______ _______ _____ _____    ______ ____
ROOT
ATOM      1  N   UNL A   1       2.703   0.360   0.085  0.00  0.00    -0.139 NA
ATOM      2  N   UNL A   1       1.359   0.534   0.075  0.00  0.00    -0.181 N
ATOM      3  C   UNL A   1       0.681   1.787   0.142  0.00  0.00    +0.218 A
ATOM      4  N   UNL A   1      -0.639   1.854   0.092  0.00  0.00    -0.195 NA
ATOM      5  C   UNL A   1      -1.281   0.644   0.003  0.00  0.00    +0.165 A
ATOM      6  C   UNL A   1      -0.734  -0.619  -0.063  0.00  0.00    +0.083 A
ATOM      7  C   UNL A   1       0.715  -0.663  -0.040  0.00  0.00    +0.172 A
ATOM      8  N   UNL A   1       1.568  -1.646  -0.112  0.00  0.00    -0.203 NA
ATOM      9  C   UNL A   1       2.782  -0.984  -0.016  0.00  0.00    +0.218 A
ATOM     10  C   UNL A   1      -1.773  -1.532  -0.121  0.00  0.00    +0.062 A
ATOM     11  N   UNL A   1      -2.957  -0.907  -0.105  0.00  0.00    -0.177 NA
ATOM     12  N   UNL A   1      -2.637   0.415  -0.025  0.00  0.00    -0.246 N
ATOM     13  N   UNL A   1       1.442   2.928   0.245  0.00  0.00    -0.327 N
ATOM     14  H   UNL A   1       2.424   2.862   0.281  0.00  0.00    +0.000 HD
ATOM     15  H   UNL A   1       1.006   3.809   0.283  0.00  0.00    +0.000 HD
ENDROOT
BRANCH   9  16
ATOM     16  C   UNL A   1       4.063  -1.758  -0.013  0.00  0.00    +0.173 A
ATOM     17  O   UNL A   1       5.320  -1.252   0.177  0.00  0.00    -0.460 OA
ATOM     18  C   UNL A   1       6.184  -2.300   0.145  0.00  0.00    +0.093 A
ATOM     19  C   UNL A   1       5.511  -3.477  -0.086  0.00  0.00    -0.023 A
ATOM     20  C   UNL A   1       4.145  -3.128  -0.189  0.00  0.00    -0.013 A
ENDBRANCH   9  16
BRANCH  12  21
ATOM     21  C   UNL A   1      -3.706   1.395   0.029  0.00  0.00    +0.044 C
BRANCH  21  22
ATOM     22  C   UNL A   1      -4.142   1.677   1.463  0.00  0.00    -0.029 C
BRANCH  22  23
ATOM     23  C   UNL A   1      -5.331   2.638   1.516  0.00  0.00    -0.026 C
BRANCH  23  24
ATOM     24  C   UNL A   1      -5.737   2.923   2.942  0.00  0.00    -0.047 A
ATOM     25  C   UNL A   1      -5.145   3.974   3.652  0.00  0.00    -0.055 A
ATOM     26  C   UNL A   1      -5.485   4.216   4.989  0.00  0.00    -0.020 A
ATOM     27  C   UNL A   1      -6.419   3.407   5.633  0.00  0.00    +0.120 A
ATOM     28  C   UNL A   1      -7.011   2.357   4.928  0.00  0.00    -0.020 A
ATOM     29  C   UNL A   1      -6.673   2.113   3.594  0.00  0.00    -0.055 A
BRANCH  27  30
ATOM     30  O   UNL A   1      -6.831   3.531   6.932  0.00  0.00    -0.495 OA
ATOM     31  C   UNL A   1      -6.250   4.585   7.691  0.00  0.00    +0.079 C
ENDBRANCH  27  30
ENDBRANCH  23  24
ENDBRANCH  22  23
ENDBRANCH  21  22
ENDBRANCH  12  21
TORSDOF 6
