@<TRIPOS>MOLECULE
SCH442416
 48 52 0 0 0
SMALL
GASTEIGER

@<TRIPOS>ATOM
      1 N           2.7034    0.3597    0.0846 N.ar    1  UNL1       -0.1387
      2 N           1.3593    0.5338    0.0754 N.ar    1  UNL1       -0.1808
      3 C           0.6806    1.7872    0.1419 C.ar    1  UNL1        0.2176
      4 N          -0.6387    1.8543    0.0922 N.ar    1  UNL1       -0.1951
      5 C          -1.2810    0.6438    0.0026 C.ar    1  UNL1        0.1654
      6 C          -0.7340   -0.6185   -0.0626 C.ar    1  UNL1        0.0829
      7 C           0.7152   -0.6629   -0.0397 C.ar    1  UNL1        0.1722
      8 N           1.5684   -1.6457   -0.1118 N.ar    1  UNL1       -0.2033
      9 C           2.7818   -0.9843   -0.0158 C.ar    1  UNL1        0.2177
     10 C           4.0628   -1.7579   -0.0126 C.ar    1  UNL1        0.1733
     11 O           5.3200   -1.2515    0.1774 O.2     1  UNL1       -0.4597
     12 C           6.1838   -2.2999    0.1453 C.ar    1  UNL1        0.0927
     13 C           5.5108   -3.4772   -0.0860 C.ar    1  UNL1       -0.0232
     14 C           4.1453   -3.1279   -0.1893 C.ar    1  UNL1       -0.0127
     15 C          -1.7727   -1.5320   -0.1212 C.ar    1  UNL1        0.0623
     16 N          -2.9570   -0.9070   -0.1048 N.ar    1  UNL1       -0.1770
     17 N          -2.6366    0.4154   -0.0255 N.ar    1  UNL1       -0.2462
     18 C          -3.7058    1.3952    0.0286 C.3     1  UNL1        0.0441
     19 C          -4.1416    1.6775    1.4634 C.3     1  UNL1       -0.0293
     20 C          -5.3306    2.6379    1.5164 C.3     1  UNL1       -0.0260
     21 C          -5.7369    2.9229    2.9420 C.ar    1  UNL1       -0.0471
     22 C          -5.1452    3.9745    3.6522 C.ar    1  UNL1       -0.0551
     23 C          -5.4850    4.2165    4.9887 C.ar    1  UNL1       -0.0197
     24 C          -6.4191    3.4071    5.6335 C.ar    1  UNL1        0.1201
     25 O          -6.8314    3.5315    6.9322 O.3     1  UNL1       -0.4951
     26 C          -6.2502    4.5845    7.6910 C.3     1  UNL1        0.0788
     27 C          -7.0108    2.3570    4.9280 C.ar    1  UNL1       -0.0197
     28 C          -6.6734    2.1127    3.5937 C.ar    1  UNL1       -0.0551
     29 N           1.4422    2.9277    0.2453 N.pl3   1  UNL1       -0.3273
     30 H           7.2247   -2.0557    0.3036 H       1  UNL1        0.1029
     31 H           5.9464   -4.4633   -0.1643 H       1  UNL1        0.0649
     32 H           3.3065   -3.7881   -0.3678 H       1  UNL1        0.0656
     33 H          -1.7362   -2.6119   -0.1704 H       1  UNL1        0.0856
     34 H          -4.5398    0.9937   -0.5601 H       1  UNL1        0.0509
     35 H          -3.3554    2.3043   -0.4716 H       1  UNL1        0.0509
     36 H          -3.2966    2.0944    2.0262 H       1  UNL1        0.0286
     37 H          -4.4065    0.7358    1.9620 H       1  UNL1        0.0286
     38 H          -6.1854    2.2188    0.9701 H       1  UNL1        0.0314
     39 H          -5.0827    3.5807    1.0124 H       1  UNL1        0.0314
     40 H          -4.4062    4.6121    3.1722 H       1  UNL1        0.0621
     41 H          -4.9961    5.0411    5.4960 H       1  UNL1        0.0654
     42 H          -6.6777    4.5484    8.6977 H       1  UNL1        0.0660
     43 H          -6.4944    5.5616    7.2610 H       1  UNL1        0.0660
     44 H          -5.1670    4.4532    7.7853 H       1  UNL1        0.0660
     45 H          -7.7372    1.7181    5.4246 H       1  UNL1        0.0654
     46 H          -7.1423    1.2807    3.0733 H       1  UNL1        0.0621
     47 H           2.4217    2.8369   -0.0170 H       1  UNL1        0.1452
     48 H           0.9861    3.7813   -0.0503 H       1  UNL1        0.1452
@<TRIPOS>BOND
     1     1     2   ar
     2     2     3   ar
     3     3     4   ar
     4     4     5   ar
     5     5     6   ar
     6     6     7   ar
     7     2     7   ar
     8     7     8   ar
     9     8     9   ar
    10     1     9   ar
    11     9    10    1
    12    10    11   ar
    13    11    12   ar
    14    12    13   ar
    15    13    14   ar
    16    10    14   ar
    17     6    15   ar
    18    15    16   ar
    19    16    17   ar
    20     5    17   ar
    21    17    18    1
    22    18    19    1
    23    19    20    1
    24    20    21    1
    25    21    22   ar
    26    22    23   ar
    27    23    24   ar
    28    24    25    1
    29    25    26    1
    30    24    27   ar
    31    27    28   ar
    32    21    28   ar
    33     3    29    1
    34    12    30    1
    35    13    31    1
    36    14    32    1
    37    15    33    1
    38    18    34    1
    39    18    35    1
    40    19    36    1
    41    19    37    1
    42    20    38    1
    43    20    39    1
    44    22    40    1
    45    23    41    1
    46    26    42    1
    47    26    43    1
    48    26    44    1
    49    27    45    1
    50    28    46    1
    51    29    47    1
    52    29    48    1
