@<TRIPOS>MOLECULE
Methane
 5 4 0 0 0
SMALL
GASTEIGER

@<TRIPOS>ATOM
      1 C           1.0659   -0.0699   -0.0277 C.3     1  UNL1       -0.0776
      2 H           2.1581   -0.0699   -0.0277 H       1  UNL1        0.0194
      3 H           0.7018   -0.7850   -0.7687 H       1  UNL1        0.0194
      4 H           0.7018    0.9293   -0.2765 H       1  UNL1        0.0194
      5 H           0.7018   -0.3541    0.9620 H       1  UNL1        0.0194
@<TRIPOS>BOND
     1     1     2    1
     2     1     3    1
     3     1     4    1
     4     1     5    1
@<TRIPOS>MOLECULE
Water
 3 2 0 0 0
SMALL
GASTEIGER

@<TRIPOS>ATOM
      1 O           1.0554   -0.0404    0.0701 O.3     1  HOH1       -0.4105
      2 H           2.0233    0.0060    0.0673 H       0  HOH0        0.2052
      3 H           0.7766    0.8859    0.0136 H       0  HOH0        0.2052
@<TRIPOS>BOND
     1     1     2    1
     2     1     3    1
