@<TRIPOS>MOLECULE
Caffeine
 24 25 0 0 0
SMALL
GASTEIGER

@<TRIPOS>ATOM
      1 C          -3.2461   -1.1344    0.0318 C.3     1  UNL1        0.0135
      2 N          -2.2655   -0.0791    0.0049 N.ar    1  UNL1       -0.3277
      3 C          -2.5216    1.2668   -0.0061 C.ar    1  UNL1        0.0986
      4 N          -1.4083    1.9732   -0.0093 N.ar    1  UNL1       -0.2177
      5 C          -0.4144    1.0413   -0.0033 C.ar    1  UNL1        0.1678
      6 C          -0.9084   -0.2278    0.0003 C.ar    1  UNL1        0.1512
      7 C          -0.0849   -1.3851    0.0056 C.ar    1  UNL1        0.2822
      8 O          -0.5417   -2.5246    0.0070 O.2     1  UNL1       -0.2652
      9 N           1.2784   -1.0790    0.0093 N.ar    1  UNL1       -0.2622
     10 C           1.8297    0.2191    0.0066 C.ar    1  UNL1        0.3331
     11 O           3.0528    0.3879    0.0084 O.2     1  UNL1       -0.2462
     12 N           0.9368    1.2916    0.0030 N.ar    1  UNL1       -0.2796
     13 C           1.4267    2.6580    0.0095 C.3     1  UNL1        0.0181
     14 C           2.2244   -2.1772    0.0213 C.3     1  UNL1        0.0196
     15 H          -4.2494   -0.7020    0.0053 H       1  UNL1        0.0456
     16 H          -3.1148   -1.7051    0.9547 H       1  UNL1        0.0456
     17 H          -3.0973   -1.7730   -0.8427 H       1  UNL1        0.0456
     18 H          -3.5247    1.6746   -0.0091 H       1  UNL1        0.1029
     19 H           2.5188    2.6991    0.0368 H       1  UNL1        0.0458
     20 H           1.0376    3.1739    0.8930 H       1  UNL1        0.0458
     21 H           1.0807    3.1666   -0.8958 H       1  UNL1        0.0458
     22 H           1.7348   -3.1541    0.0225 H       1  UNL1        0.0458
     23 H           2.8523   -2.0943    0.9145 H       1  UNL1        0.0458
     24 H           2.8673   -2.1032   -0.8618 H       1  UNL1        0.0458
@<TRIPOS>BOND
     1     1     2    1
     2     2     3   ar
     3     3     4   ar
     4     4     5   ar
     5     5     6   ar
     6     2     6   ar
     7     6     7   ar
     8     7     8    2
     9     7     9   ar
    10     9    10   ar
    11    10    11    2
    12    10    12   ar
    13     5    12   ar
    14    12    13    1
    15     9    14    1
    16     1    15    1
    17     1    16    1
    18     1    17    1
    19     3    18    1
    20    13    19    1
    21    13    20    1
    22    13    21    1
    23    14    22    1
    24    14    23    1
    25    14    24    1
@<TRIPOS>MOLECULE
Theophylline
 21 22 0 0 0
SMALL
GASTEIGER

@<TRIPOS>ATOM
      1 C           0.1622    2.8560    0.0052 C.3     1  UNL1        0.0181
      2 N           0.1857    1.4078   -0.0012 N.ar    1  UNL1       -0.2796
      3 C          -0.9694    0.6670   -0.0012 C.ar    1  UNL1        0.1676
      4 C          -0.9388   -0.6926   -0.0041 C.ar    1  UNL1        0.1488
      5 C           0.2561   -1.4557   -0.0002 C.ar    1  UNL1        0.2820
      6 O           0.2496   -2.6820   -0.0077 O.2     1  UNL1       -0.2652
      7 N           1.4030   -0.6577    0.0185 N.ar    1  UNL1       -0.2622
      8 C           1.4196    0.7528    0.0105 C.ar    1  UNL1        0.3331
      9 O           2.4825    1.3815    0.0176 O.2     1  UNL1       -0.2462
     10 C           2.6946   -1.3141    0.0618 C.3     1  UNL1        0.0196
     11 N          -2.2446   -1.0865   -0.0026 N.ar    1  UNL1       -0.3389
     12 C          -2.9992    0.0581    0.0107 C.ar    1  UNL1        0.0963
     13 N          -2.2458    1.1400    0.0070 N.ar    1  UNL1       -0.2179
     14 H          -0.8586    3.2469   -0.0139 H       1  UNL1        0.0458
     15 H           0.7052    3.2252   -0.8707 H       1  UNL1        0.0458
     16 H           0.6691    3.2147    0.9067 H       1  UNL1        0.0458
     17 H           2.6123   -2.4038    0.0513 H       1  UNL1        0.0458
     18 H           3.2151   -1.0068    0.9751 H       1  UNL1        0.0458
     19 H           3.2903   -0.9927   -0.7988 H       1  UNL1        0.0458
     20 H          -2.5842   -2.0398   -0.0029 H       1  UNL1        0.1670
     21 H          -4.0811    0.0399    0.0250 H       1  UNL1        0.1027
@<TRIPOS>BOND
     1     1     2    1
     2     2     3   ar
     3     3     4   ar
     4     4     5   ar
     5     5     6    2
     6     5     7   ar
     7     7     8   ar
     8     2     8   ar
     9     8     9    2
    10     7    10    1
    11     4    11   ar
    12    11    12   ar
    13    12    13   ar
    14     3    13   ar
    15     1    14    1
    16     1    15    1
    17     1    16    1
    18    10    17    1
    19    10    18    1
    20    10    19    1
    21    11    20    1
    22    12    21    1
@<TRIPOS>MOLECULE
CPCPX
 46 48 0 0 0
SMALL
GASTEIGER

@<TRIPOS>ATOM
      1 C           0.9886    0.4177   -2.9092 C.3     1  UNL1       -0.0637
      2 C           2.5097    0.4348   -2.9183 C.3     1  UNL1       -0.0376
      3 C           3.0793    0.1537   -1.5249 C.3     1  UNL1        0.0308
      4 N           4.5393    0.1793   -1.5169 N.ar    1  UNL1       -0.2590
      5 C           5.1809   -1.0357   -1.8190 C.ar    1  UNL1        0.2842
      6 O           4.5853   -2.0791   -2.0753 O.2     1  UNL1       -0.2651
      7 C           6.6201   -0.9365   -1.7981 C.ar    1  UNL1        0.1707
      8 N           7.5458   -1.9215   -2.0315 N.ar    1  UNL1       -0.2251
      9 C           8.7245   -1.3406   -1.8934 C.ar    1  UNL1        0.1126
     10 C          10.0508   -1.9964   -2.0943 C.3     1  UNL1        0.0172
     11 C          10.2221   -2.5285   -3.5186 C.3     1  UNL1       -0.0434
     12 C          11.2724   -3.6320   -3.4161 C.3     1  UNL1       -0.0524
     13 C          11.3522   -4.0161   -1.9405 C.3     1  UNL1       -0.0524
     14 C          10.2219   -3.2610   -1.2515 C.3     1  UNL1       -0.0434
     15 N           8.5734   -0.0085   -1.5579 N.ar    1  UNL1       -0.3276
     16 C           7.2330    0.2497   -1.5073 C.ar    1  UNL1        0.1478
     17 N           6.5821    1.4329   -1.2092 N.ar    1  UNL1       -0.2779
     18 C           7.2625    2.6739   -0.8299 C.3     1  UNL1        0.0292
     19 C           7.6568    3.5791   -2.0025 C.3     1  UNL1       -0.0376
     20 C           6.4818    4.1365   -2.7921 C.3     1  UNL1       -0.0637
     21 C           5.1685    1.4074   -1.2201 C.ar    1  UNL1        0.3335
     22 O           4.5125    2.4260   -0.9770 O.2     1  UNL1       -0.2462
     23 H           0.5988    0.6386   -3.9078 H       1  UNL1        0.0230
     24 H           0.5918    1.1671   -2.2169 H       1  UNL1        0.0230
     25 H           0.6088   -0.5637   -2.6070 H       1  UNL1        0.0230
     26 H           2.8591    1.4100   -3.2767 H       1  UNL1        0.0280
     27 H           2.8735   -0.3130   -3.6331 H       1  UNL1        0.0280
     28 H           2.7307   -0.8264   -1.1774 H       1  UNL1        0.0494
     29 H           2.6936    0.8911   -0.8108 H       1  UNL1        0.0494
     30 H          10.8666   -1.2967   -1.8665 H       1  UNL1        0.0379
     31 H          10.5229   -1.7424   -4.2190 H       1  UNL1        0.0272
     32 H           9.2863   -2.9579   -3.8994 H       1  UNL1        0.0272
     33 H          12.2476   -3.2781   -3.7680 H       1  UNL1        0.0265
     34 H          10.9942   -4.4900   -4.0379 H       1  UNL1        0.0265
     35 H          12.3203   -3.7063   -1.5302 H       1  UNL1        0.0265
     36 H          11.2652   -5.0976   -1.7942 H       1  UNL1        0.0265
     37 H          10.4578   -3.0380   -0.2058 H       1  UNL1        0.0272
     38 H           9.3129   -3.8758   -1.2603 H       1  UNL1        0.0272
     39 H           9.3262    0.6444   -1.3917 H       1  UNL1        0.1685
     40 H           8.1677    2.4065   -0.2709 H       1  UNL1        0.0494
     41 H           6.6306    3.2340   -0.1321 H       1  UNL1        0.0494
     42 H           8.3277    3.0451   -2.6841 H       1  UNL1        0.0280
     43 H           8.2242    4.4282   -1.5993 H       1  UNL1        0.0280
     44 H           5.9126    3.3385   -3.2777 H       1  UNL1        0.0230
     45 H           6.8434    4.8088   -3.5772 H       1  UNL1        0.0230
     46 H           5.8067    4.7083   -2.1477 H       1  UNL1        0.0230
@<TRIPOS>BOND
     1     1     2    1
     2     2     3    1
     3     3     4    1
     4     4     5   ar
     5     5     6    2
     6     5     7   ar
     7     7     8   ar
     8     8     9   ar
     9     9    10    1
    10    10    11    1
    11    11    12    1
    12    12    13    1
    13    13    14    1
    14    10    14    1
    15     9    15   ar
    16    15    16   ar
    17     7    16   ar
    18    16    17   ar
    19    17    18    1
    20    18    19    1
    21    19    20    1
    22    17    21   ar
    23     4    21   ar
    24    21    22    2
    25     1    23    1
    26     1    24    1
    27     1    25    1
    28     2    26    1
    29     2    27    1
    30     3    28    1
    31     3    29    1
    32    10    30    1
    33    11    31    1
    34    11    32    1
    35    12    33    1
    36    12    34    1
    37    13    35    1
    38    13    36    1
    39    14    37    1
    40    14    38    1
    41    15    39    1
    42    18    40    1
    43    18    41    1
    44    19    42    1
    45    19    43    1
    46    20    44    1
    47    20    45    1
    48    20    46    1
@<TRIPOS>MOLECULE
SCH442416
 48 52 0 0 0
SMALL
GASTEIGER

@<TRIPOS>ATOM
      1 N           2.7034    0.3597    0.0846 N.ar    1  UNL1       -0.1387
      2 N           1.3593    0.5338    0.0754 N.ar    1  UNL1       -0.1808
      3 C           0.6806    1.7872    0.1419 C.ar    1  UNL1        0.2176
      4 N          -0.6387    1.8543    0.0922 N.ar    1  UNL1       -0.1951
      5 C          -1.2810    0.6438    0.0026 C.ar    1  UNL1        0.1654
      6 C          -0.7340   -0.6185   -0.0626 C.ar    1  UNL1        0.0829
      7 C           0.7152   -0.6629   -0.0397 C.ar    1  UNL1        0.1722
      8 N           1.5684   -1.6457   -0.1118 N.ar    1  UNL1       -0.2033
      9 C           2.7818   -0.9843   -0.0158 C.ar    1  UNL1        0.2177
     10 C           4.0628   -1.7579   -0.0126 C.ar    1  UNL1        0.1733
     11 O           5.3200   -1.2515    0.1774 O.2     1  UNL1       -0.4597
     12 C           6.1838   -2.2999    0.1453 C.ar    1  UNL1        0.0927
     13 C           5.5108   -3.4772   -0.0860 C.ar    1  UNL1       -0.0232
     14 C           4.1453   -3.1279   -0.1893 C.ar    1  UNL1       -0.0127
     15 C          -1.7727   -1.5320   -0.1212 C.ar    1  UNL1        0.0623
     16 N          -2.9570   -0.9070   -0.1048 N.ar    1  UNL1       -0.1770
     17 N          -2.6366    0.4154   -0.0255 N.ar    1  UNL1       -0.2462
     18 C          -3.7058    1.3952    0.0286 C.3     1  UNL1        0.0441
     19 C          -4.1416    1.6775    1.4634 C.3     1  UNL1       -0.0293
     20 C          -5.3306    2.6379    1.5164 C.3     1  UNL1       -0.0260
     21 C          -5.7369    2.9229    2.9420 C.ar    1  UNL1       -0.0471
     22 C          -5.1452    3.9745    3.6522 C.ar    1  UNL1       -0.0551
     23 C          -5.4850    4.2165    4.9887 C.ar    1  UNL1       -0.0197
     24 C          -6.4191    3.4071    5.6335 C.ar    1  UNL1        0.1201
     25 O          -6.8314    3.5315    6.9322 O.3     1  UNL1       -0.4951
     26 C          -6.2502    4.5845    7.6910 C.3     1  UNL1        0.0788
     27 C          -7.0108    2.3570    4.9280 C.ar    1  UNL1       -0.0197
     28 C          -6.6734    2.1127    3.5937 C.ar    1  UNL1       -0.0551
     29 N           1.4422    2.9277    0.2453 N.pl3   1  UNL1       -0.3273
     30 H           7.2247   -2.0557    0.3036 H       1  UNL1        0.1029
     31 H           5.9464   -4.4633   -0.1643 H       1  UNL1        0.0649
     32 H           3.3065   -3.7881   -0.3678 H       1  UNL1        0.0656
     33 H          -1.7362   -2.6119   -0.1704 H       1  UNL1        0.0856
     34 H          -4.5398    0.9937   -0.5601 H       1  UNL1        0.0509
     35 H          -3.3554    2.3043   -0.4716 H       1  UNL1        0.0509
     36 H          -3.2966    2.0944    2.0262 H       1  UNL1        0.0286
     37 H          -4.4065    0.7358    1.9620 H       1  UNL1        0.0286
     38 H          -6.1854    2.2188    0.9701 H       1  UNL1        0.0314
     39 H          -5.0827    3.5807    1.0124 H       1  UNL1        0.0314
     40 H          -4.4062    4.6121    3.1722 H       1  UNL1        0.0621
     41 H          -4.9961    5.0411    5.4960 H       1  UNL1        0.0654
     42 H          -6.6777    4.5484    8.6977 H       1  UNL1        0.0660
     43 H          -6.4944    5.5616    7.2610 H       1  UNL1        0.0660
     44 H          -5.1670    4.4532    7.7853 H       1  UNL1        0.0660
     45 H          -7.7372    1.7181    5.4246 H       1  UNL1        0.0654
     46 H          -7.1423    1.2807    3.0733 H       1  UNL1        0.0621
     47 H           2.4217    2.8369   -0.0170 H       1  UNL1        0.1452
     48 H           0.9861    3.7813   -0.0503 H       1  UNL1        0.1452
@<TRIPOS>BOND
     1     1     2   ar
     2     2     3   ar
     3     3     4   ar
     4     4     5   ar
     5     5     6   ar
     6     6     7   ar
     7     2     7   ar
     8     7     8   ar
     9     8     9   ar
    10     1     9   ar
    11     9    10    1
    12    10    11   ar
    13    11    12   ar
    14    12    13   ar
    15    13    14   ar
    16    10    14   ar
    17     6    15   ar
    18    15    16   ar
    19    16    17   ar
    20     5    17   ar
    21    17    18    1
    22    18    19    1
    23    19    20    1
    24    20    21    1
    25    21    22   ar
    26    22    23   ar
    27    23    24   ar
    28    24    25    1
    29    25    26    1
    30    24    27   ar
    31    27    28   ar
    32    21    28   ar
    33     3    29    1
    34    12    30    1
    35    13    31    1
    36    14    32    1
    37    15    33    1
    38    18    34    1
    39    18    35    1
    40    19    36    1
    41    19    37    1
    42    20    38    1
    43    20    39    1
    44    22    40    1
    45    23    41    1
    46    26    42    1
    47    26    43    1
    48    26    44    1
    49    27    45    1
    50    28    46    1
    51    29    47    1
    52    29    48    1
@<TRIPOS>MOLECULE
ZM-241385
 40 43 0 0 0
SMALL
GASTEIGER

@<TRIPOS>ATOM
      1 O          -4.9816    3.4096    4.2309 O.3     1  UNL1       -0.5068
      2 C          -4.6603    2.5336    3.2369 C.ar    1  UNL1        0.1169
      3 C          -4.6839    1.1602    3.4470 C.ar    1  UNL1       -0.0199
      4 C          -4.3504    0.2949    2.4007 C.ar    1  UNL1       -0.0551
      5 C          -4.0051    0.7938    1.1368 C.ar    1  UNL1       -0.0457
      6 C          -3.5965   -0.1025   -0.0124 C.3     1  UNL1       -0.0120
      7 C          -4.1478   -1.5365   -0.0349 C.3     1  UNL1        0.0158
      8 N          -5.5974   -1.5694   -0.1572 N.pl3   1  UNL1       -0.3130
      9 C          -6.2807   -2.7536   -0.1889 C.ar    1  UNL1        0.2213
     10 N          -5.8195   -3.8141    0.4213 N.ar    1  UNL1       -0.1771
     11 C          -6.5357   -4.9573    0.2963 C.ar    1  UNL1        0.2593
     12 N          -6.3695   -6.1714    0.7804 N.ar    1  UNL1       -0.1861
     13 C          -7.3904   -6.8987    0.1944 C.ar    1  UNL1        0.2189
     14 C          -7.5829   -8.3637    0.4103 C.ar    1  UNL1        0.1734
     15 C          -6.9339   -9.1478    1.3459 C.ar    1  UNL1       -0.0127
     16 C          -7.4196  -10.4697    1.1810 C.ar    1  UNL1       -0.0232
     17 C          -8.3250  -10.4169    0.1489 C.ar    1  UNL1        0.0927
     18 O          -8.4479   -9.1463   -0.3096 O.2     1  UNL1       -0.4597
     19 N          -8.1950   -6.1903   -0.6131 N.ar    1  UNL1       -0.1375
     20 N          -7.6560   -4.9691   -0.4726 N.ar    1  UNL1       -0.1644
     21 C          -8.1346   -3.8127   -1.0743 C.ar    1  UNL1        0.2198
     22 N          -9.2970   -3.8784   -1.7962 N.pl3   1  UNL1       -0.3273
     23 N          -7.4476   -2.7204   -0.9303 N.ar    1  UNL1       -0.1812
     24 C          -3.9682    2.1884    0.9574 C.ar    1  UNL1       -0.0551
     25 C          -4.3016    3.0540    2.0021 C.ar    1  UNL1       -0.0199
     26 H          -5.2301    2.8998    5.0194 H       1  UNL1        0.2921
     27 H          -4.9543    0.7417    4.4111 H       1  UNL1        0.0654
     28 H          -4.3704   -0.7746    2.5946 H       1  UNL1        0.0621
     29 H          -2.5003   -0.1612   -0.0014 H       1  UNL1        0.0328
     30 H          -3.8781    0.3861   -0.9549 H       1  UNL1        0.0328
     31 H          -3.8248   -2.0835    0.8577 H       1  UNL1        0.0465
     32 H          -3.7156   -2.0527   -0.9010 H       1  UNL1        0.0465
     33 H          -5.9968   -0.8814   -0.7850 H       1  UNL1        0.1489
     34 H          -6.2089   -8.7977    2.0682 H       1  UNL1        0.0656
     35 H          -7.1425  -11.3519    1.7408 H       1  UNL1        0.0649
     36 H          -8.9399  -11.1531   -0.3503 H       1  UNL1        0.1029
     37 H          -9.5909   -4.8099   -2.0873 H       1  UNL1        0.1452
     38 H          -9.4593   -3.1327   -2.4597 H       1  UNL1        0.1452
     39 H          -3.6773    2.6140   -0.0008 H       1  UNL1        0.0621
     40 H          -4.2774    4.1297    1.8521 H       1  UNL1        0.0654
@<TRIPOS>BOND
     1     1     2    1
     2     2     3   ar
     3     3     4   ar
     4     4     5   ar
     5     5     6    1
     6     6     7    1
     7     7     8    1
     8     8     9    1
     9     9    10   ar
    10    10    11   ar
    11    11    12   ar
    12    12    13   ar
    13    13    14    1
    14    14    15   ar
    15    15    16   ar
    16    16    17   ar
    17    17    18   ar
    18    14    18   ar
    19    13    19   ar
    20    19    20   ar
    21    11    20   ar
    22    20    21   ar
    23    21    22    1
    24    21    23   ar
    25     9    23   ar
    26     5    24   ar
    27    24    25   ar
    28     2    25   ar
    29     1    26    1
    30     3    27    1
    31     4    28    1
    32     6    29    1
    33     6    30    1
    34     7    31    1
    35     7    32    1
    36     8    33    1
    37    15    34    1
    38    16    35    1
    39    17    36    1
    40    22    37    1
    41    22    38    1
    42    24    39    1
    43    25    40    1
