REMARK  Name = data/3EML/ligand.pdb
REMARK  4 active torsions:
REMARK  status: ('A' for Active; 'I' for Inactive)
REMARK    1  A    between atoms: C7_7  and  C8_8
REMARK    2  A    between atoms: C8_8  and  C9_9
REMARK    3  A    between atoms: C9_9  and  N10_10
REMARK    4  A    between atoms: C20_20  and  C21_21
REMARK                            x       y       z     vdW  Elec       q    Type
REMARK                         _______ _______ _______ _____ _____    ______ ____
ROOT
ATOM      1  N10 ZMA A 401      -9.420  -9.544  56.644  0.00  0.00    +0.000 NA
ATOM      2  C11 ZMA A 401      -8.953  -8.593  55.842  0.00  0.00    +0.000 C 
ATOM      3  N12 ZMA A 401      -8.585  -8.857  54.578  0.00  0.00    +0.000 NA
ATOM      4  N13 ZMA A 401      -8.833  -7.359  56.358  0.00  0.00    +0.000 NA
ATOM      5  C14 ZMA A 401      -8.365  -6.342  55.626  0.00  0.00    +0.000 C 
ATOM      6  N15 ZMA A 401      -8.266  -5.125  56.156  0.00  0.00    +0.000 NA
ATOM      7  N16 ZMA A 401      -7.981  -6.582  54.309  0.00  0.00    +0.000 N 
ATOM      8  N17 ZMA A 401      -7.525  -5.852  53.428  0.00  0.00    +0.000 NA
ATOM      9  C18 ZMA A 401      -8.104  -7.874  53.800  0.00  0.00    +0.000 C 
ATOM     10  N19 ZMA A 401      -7.676  -7.829  52.544  0.00  0.00    +0.000 NA
ATOM     11  C20 ZMA A 401      -7.313  -6.565  52.320  0.00  0.00    +0.000 C 
ENDROOT
BRANCH  11  12
ATOM     12  C21 ZMA A 401      -6.809  -6.054  51.131  0.00  0.00    +0.000 A 
ATOM     13  C22 ZMA A 401      -6.554  -6.688  49.991  0.00  0.00    +0.000 A 
ATOM     14  C23 ZMA A 401      -6.081  -5.796  49.121  0.00  0.00    +0.000 A 
ATOM     15  C24 ZMA A 401      -6.034  -4.598  49.703  0.00  0.00    +0.000 A 
ATOM     16  O25 ZMA A 401      -6.492  -4.739  50.984  0.00  0.00    +0.000 OA
ENDBRANCH  11  12
BRANCH   1  17
ATOM     17  C9  ZMA A 401      -9.746  -9.104  58.006  0.00  0.00    +0.000 C 
BRANCH  17  18
ATOM     18  C8  ZMA A 401     -11.208  -8.677  58.101  0.00  0.00    +0.000 C 
BRANCH  18  25
ATOM     19  C1  ZMA A 401     -10.992  -8.796  60.617  0.00  0.00    +0.000 A 
ATOM     20  C2  ZMA A 401     -11.241  -8.297  61.889  0.00  0.00    +0.000 A 
ATOM     21  C3  ZMA A 401     -11.984  -7.133  62.045  0.00  0.00    +0.000 A 
ATOM     22  O4  ZMA A 401     -12.231  -6.638  63.286  0.00  0.00    +0.000 OA
ATOM     23  C5  ZMA A 401     -12.476  -6.469  60.928  0.00  0.00    +0.000 A 
ATOM     24  C6  ZMA A 401     -12.230  -6.969  59.657  0.00  0.00    +0.000 A 
ATOM     25  C7  ZMA A 401     -11.492  -8.135  59.501  0.00  0.00    +0.000 A 
ENDBRANCH  18  25
ENDBRANCH  17  18
ENDBRANCH   1  17
TORSDOF 4
