MODEL 1
REMARK VINA RESULT:    -5.789      0.000      0.000
REMARK INTER + INTRA:          -5.789
REMARK INTER:                  -5.789
REMARK INTRA:                   0.000
REMARK UNBOUND:                 0.000
REMARK  Name = Theophylline
REMARK  2 active torsions:
REMARK  status: ('A' for Active; 'I' for Inactive)
REMARK    1  A    between atoms: C_1  and  N_2
REMARK    2  A    between atoms: N_7  and  C_10
REMARK                            x       y       z     vdW  Elec       q    Type
REMARK                         _______ _______ _______ _____ _____    ______ ____
ROOT
ATOM      1  C   UNL     1      -8.597  -9.869  53.988  0.00  0.00    +0.018 C 
ATOM      2  N   UNL     1      -8.340 -10.811  52.918  0.00  0.00    -0.280 N 
ATOM      3  C   UNL     1      -8.738 -10.564  51.628  0.00  0.00    +0.168 A 
ATOM      4  C   UNL     1      -8.495 -11.454  50.628  0.00  0.00    +0.149 A 
ATOM      5  C   UNL     1      -7.832 -12.693  50.818  0.00  0.00    +0.282 A 
ATOM      6  O   UNL     1      -7.623 -13.472  49.895  0.00  0.00    -0.265 OA
ATOM      7  N   UNL     1      -7.462 -12.906  52.149  0.00  0.00    -0.262 N 
ATOM      8  C   UNL     1      -7.684 -12.008  53.215  0.00  0.00    +0.333 A 
ATOM      9  O   UNL     1      -7.315 -12.272  54.362  0.00  0.00    -0.246 OA
ATOM     10  C   UNL     1      -6.808 -14.154  52.488  0.00  0.00    +0.020 C 
ATOM     11  N   UNL     1      -9.020 -10.890  49.502  0.00  0.00    -0.339 N 
ATOM     12  C   UNL     1      -9.564  -9.691  49.882  0.00  0.00    +0.096 A 
ATOM     13  N   UNL     1      -9.400  -9.465  51.171  0.00  0.00    -0.218 N 
ATOM     14  H   UNL     1      -9.011 -11.271  48.595  0.00  0.00    +0.000 HD
ATOM     15  H   UNL     1      -9.692  -8.680  51.687  0.00  0.00    +0.000 HD
ENDROOT
TORSDOF 0
ENDMDL
MODEL 2
REMARK VINA RESULT:    -5.425      1.413      2.952
REMARK INTER + INTRA:          -5.425
REMARK INTER:                  -5.425
REMARK INTRA:                   0.000
REMARK UNBOUND:                 0.000
REMARK  Name = Theophylline
REMARK  2 active torsions:
REMARK  status: ('A' for Active; 'I' for Inactive)
REMARK    1  A    between atoms: C_1  and  N_2
REMARK    2  A    between atoms: N_7  and  C_10
REMARK                            x       y       z     vdW  Elec       q    Type
REMARK                         _______ _______ _______ _____ _____    ______ ____
ROOT
ATOM      1  C   UNL     1      -7.601 -13.516  50.117  0.00  0.00    +0.018 C 
ATOM      2  N   UNL     1      -7.981 -12.440  51.008  0.00  0.00    -0.280 N 
ATOM      3  C   UNL     1      -8.472 -11.249  50.534  0.00  0.00    +0.168 A 
ATOM      4  C   UNL     1      -8.824 -10.241  51.378  0.00  0.00    +0.149 A 
ATOM      5  C   UNL     1      -8.715 -10.319  52.789  0.00  0.00    +0.282 A 
ATOM      6  O   UNL     1      -9.046  -9.394  53.523  0.00  0.00    -0.265 OA
ATOM      7  N   UNL     1      -8.195 -11.541  53.221  0.00  0.00    -0.262 N 
ATOM      8  C   UNL     1      -7.826 -12.617  52.386  0.00  0.00    +0.333 A 
ATOM      9  O   UNL     1      -7.383 -13.669  52.853  0.00  0.00    -0.246 OA
ATOM     10  C   UNL     1      -7.995 -11.738  54.644  0.00  0.00    +0.020 C 
ATOM     11  N   UNL     1      -9.261  -9.229  50.574  0.00  0.00    -0.339 N 
ATOM     12  C   UNL     1      -9.140  -9.674  49.283  0.00  0.00    +0.096 A 
ATOM     13  N   UNL     1      -8.667 -10.904  49.232  0.00  0.00    -0.218 N 
ATOM     14  H   UNL     1      -9.597  -8.351  50.865  0.00  0.00    +0.000 HD
ATOM     15  H   UNL     1      -8.493 -11.449  48.432  0.00  0.00    +0.000 HD
ENDROOT
TORSDOF 0
ENDMDL
MODEL 3
REMARK VINA RESULT:    -5.354      1.389      3.362
REMARK INTER + INTRA:          -5.354
REMARK INTER:                  -5.354
REMARK INTRA:                   0.000
REMARK UNBOUND:                 0.000
REMARK  Name = Theophylline
REMARK  2 active torsions:
REMARK  status: ('A' for Active; 'I' for Inactive)
REMARK    1  A    between atoms: C_1  and  N_2
REMARK    2  A    between atoms: N_7  and  C_10
REMARK                            x       y       z     vdW  Elec       q    Type
REMARK                         _______ _______ _______ _____ _____    ______ ____
ROOT
ATOM      1  C   UNL     1      -9.437 -10.723  50.562  0.00  0.00    +0.018 C 
ATOM      2  N   UNL     1      -8.610 -11.642  51.317  0.00  0.00    -0.280 N 
ATOM      3  C   UNL     1      -8.455 -11.524  52.675  0.00  0.00    +0.168 A 
ATOM      4  C   UNL     1      -7.675 -12.389  53.378  0.00  0.00    +0.149 A 
ATOM      5  C   UNL     1      -6.959 -13.462  52.790  0.00  0.00    +0.282 A 
ATOM      6  O   UNL     1      -6.268 -14.229  53.451  0.00  0.00    -0.265 OA
ATOM      7  N   UNL     1      -7.134 -13.530  51.405  0.00  0.00    -0.262 N 
ATOM      8  C   UNL     1      -7.940 -12.663  50.637  0.00  0.00    +0.333 A 
ATOM      9  O   UNL     1      -8.047 -12.800  49.416  0.00  0.00    -0.246 OA
ATOM     10  C   UNL     1      -6.425 -14.561  50.673  0.00  0.00    +0.020 C 
ATOM     11  N   UNL     1      -7.753 -11.979  54.677  0.00  0.00    -0.339 N 
ATOM     12  C   UNL     1      -8.570 -10.878  54.691  0.00  0.00    +0.096 A 
ATOM     13  N   UNL     1      -9.015 -10.583  53.485  0.00  0.00    -0.218 N 
ATOM     14  H   UNL     1      -7.308 -12.392  55.451  0.00  0.00    +0.000 HD
ATOM     15  H   UNL     1      -9.617  -9.849  53.228  0.00  0.00    +0.000 HD
ENDROOT
TORSDOF 0
ENDMDL
MODEL 4
REMARK VINA RESULT:    -5.343      1.577      3.528
REMARK INTER + INTRA:          -5.343
REMARK INTER:                  -5.343
REMARK INTRA:                   0.000
REMARK UNBOUND:                 0.000
REMARK  Name = Theophylline
REMARK  2 active torsions:
REMARK  status: ('A' for Active; 'I' for Inactive)
REMARK    1  A    between atoms: C_1  and  N_2
REMARK    2  A    between atoms: N_7  and  C_10
REMARK                            x       y       z     vdW  Elec       q    Type
REMARK                         _______ _______ _______ _____ _____    ______ ____
ROOT
ATOM      1  C   UNL     1      -9.460  -9.714  49.564  0.00  0.00    +0.018 C 
ATOM      2  N   UNL     1      -8.914 -10.397  50.719  0.00  0.00    -0.280 N 
ATOM      3  C   UNL     1      -8.385 -11.659  50.627  0.00  0.00    +0.168 A 
ATOM      4  C   UNL     1      -7.875 -12.296  51.716  0.00  0.00    +0.149 A 
ATOM      5  C   UNL     1      -7.850 -11.734  53.018  0.00  0.00    +0.282 A 
ATOM      6  O   UNL     1      -7.379 -12.332  53.979  0.00  0.00    -0.265 OA
ATOM      7  N   UNL     1      -8.415 -10.457  53.063  0.00  0.00    -0.262 N 
ATOM      8  C   UNL     1      -8.944  -9.755  51.960  0.00  0.00    +0.333 A 
ATOM      9  O   UNL     1      -9.417  -8.623  52.087  0.00  0.00    -0.246 OA
ATOM     10  C   UNL     1      -8.486  -9.784  54.345  0.00  0.00    +0.020 C 
ATOM     11  N   UNL     1      -7.445 -13.508  51.262  0.00  0.00    -0.339 N 
ATOM     12  C   UNL     1      -7.727 -13.546  49.921  0.00  0.00    +0.096 A 
ATOM     13  N   UNL     1      -8.294 -12.430  49.508  0.00  0.00    -0.218 N 
ATOM     14  H   UNL     1      -7.018 -14.217  51.794  0.00  0.00    +0.000 HD
ATOM     15  H   UNL     1      -8.588 -12.205  48.596  0.00  0.00    +0.000 HD
ENDROOT
TORSDOF 0
ENDMDL
MODEL 5
REMARK VINA RESULT:    -5.182      3.276      3.959
REMARK INTER + INTRA:          -5.182
REMARK INTER:                  -5.182
REMARK INTRA:                   0.000
REMARK UNBOUND:                 0.000
REMARK  Name = Theophylline
REMARK  2 active torsions:
REMARK  status: ('A' for Active; 'I' for Inactive)
REMARK    1  A    between atoms: C_1  and  N_2
REMARK    2  A    between atoms: N_7  and  C_10
REMARK                            x       y       z     vdW  Elec       q    Type
REMARK                         _______ _______ _______ _____ _____    ______ ____
ROOT
ATOM      1  C   UNL     1      -8.085  -5.709  53.981  0.00  0.00    +0.018 C 
ATOM      2  N   UNL     1      -7.880  -6.996  53.350  0.00  0.00    -0.280 N 
ATOM      3  C   UNL     1      -7.285  -7.110  52.119  0.00  0.00    +0.168 A 
ATOM      4  C   UNL     1      -7.099  -8.323  51.531  0.00  0.00    +0.149 A 
ATOM      5  C   UNL     1      -7.498  -9.552  52.113  0.00  0.00    +0.282 A 
ATOM      6  O   UNL     1      -7.311 -10.630  51.560  0.00  0.00    -0.265 OA
ATOM      7  N   UNL     1      -8.114  -9.383  53.356  0.00  0.00    -0.262 N 
ATOM      8  C   UNL     1      -8.319  -8.148  54.008  0.00  0.00    +0.333 A 
ATOM      9  O   UNL     1      -8.865  -8.090  55.113  0.00  0.00    -0.246 OA
ATOM     10  C   UNL     1      -8.605 -10.560  54.045  0.00  0.00    +0.020 C 
ATOM     11  N   UNL     1      -6.490  -8.060  50.338  0.00  0.00    -0.339 N 
ATOM     12  C   UNL     1      -6.349  -6.699  50.262  0.00  0.00    +0.096 A 
ATOM     13  N   UNL     1      -6.820  -6.097  51.337  0.00  0.00    -0.218 N 
ATOM     14  H   UNL     1      -6.209  -8.719  49.664  0.00  0.00    +0.000 HD
ATOM     15  H   UNL     1      -6.834  -5.132  51.530  0.00  0.00    +0.000 HD
ENDROOT
TORSDOF 0
ENDMDL
MODEL 6
REMARK VINA RESULT:    -5.119      2.600      4.221
REMARK INTER + INTRA:          -5.119
REMARK INTER:                  -5.119
REMARK INTRA:                   0.000
REMARK UNBOUND:                 0.000
REMARK  Name = Theophylline
REMARK  2 active torsions:
REMARK  status: ('A' for Active; 'I' for Inactive)
REMARK    1  A    between atoms: C_1  and  N_2
REMARK    2  A    between atoms: N_7  and  C_10
REMARK                            x       y       z     vdW  Elec       q    Type
REMARK                         _______ _______ _______ _____ _____    ______ ____
ROOT
ATOM      1  C   UNL     1      -7.316  -8.530  51.736  0.00  0.00    +0.018 C 
ATOM      2  N   UNL     1      -7.887  -9.341  52.792  0.00  0.00    -0.280 N 
ATOM      3  C   UNL     1      -7.979 -10.705  52.684  0.00  0.00    +0.168 A 
ATOM      4  C   UNL     1      -8.518 -11.460  53.679  0.00  0.00    +0.149 A 
ATOM      5  C   UNL     1      -9.030 -10.924  54.888  0.00  0.00    +0.282 A 
ATOM      6  O   UNL     1      -9.505 -11.632  55.769  0.00  0.00    -0.265 OA
ATOM      7  N   UNL     1      -8.929  -9.532  54.943  0.00  0.00    -0.262 N 
ATOM      8  C   UNL     1      -8.369  -8.710  53.942  0.00  0.00    +0.333 A 
ATOM      9  O   UNL     1      -8.311  -7.485  54.076  0.00  0.00    -0.246 OA
ATOM     10  C   UNL     1      -9.451  -8.851  56.112  0.00  0.00    +0.020 C 
ATOM     11  N   UNL     1      -8.449 -12.749  53.238  0.00  0.00    -0.339 N 
ATOM     12  C   UNL     1      -7.879 -12.706  51.992  0.00  0.00    +0.096 A 
ATOM     13  N   UNL     1      -7.579 -11.473  51.633  0.00  0.00    -0.218 N 
ATOM     14  H   UNL     1      -8.750 -13.553  53.720  0.00  0.00    +0.000 HD
ATOM     15  H   UNL     1      -7.160 -11.175  50.795  0.00  0.00    +0.000 HD
ENDROOT
TORSDOF 0
ENDMDL
MODEL 7
REMARK VINA RESULT:    -5.115      3.435      5.457
REMARK INTER + INTRA:          -5.115
REMARK INTER:                  -5.115
REMARK INTRA:                   0.000
REMARK UNBOUND:                 0.000
REMARK  Name = Theophylline
REMARK  2 active torsions:
REMARK  status: ('A' for Active; 'I' for Inactive)
REMARK    1  A    between atoms: C_1  and  N_2
REMARK    2  A    between atoms: N_7  and  C_10
REMARK                            x       y       z     vdW  Elec       q    Type
REMARK                         _______ _______ _______ _____ _____    ______ ____
ROOT
ATOM      1  C   UNL     1      -6.805  -7.822  51.219  0.00  0.00    +0.018 C 
ATOM      2  N   UNL     1      -7.533  -7.965  52.462  0.00  0.00    -0.280 N 
ATOM      3  C   UNL     1      -7.935  -9.193  52.926  0.00  0.00    +0.168 A 
ATOM      4  C   UNL     1      -8.621  -9.320  54.094  0.00  0.00    +0.149 A 
ATOM      5  C   UNL     1      -8.984  -8.225  54.919  0.00  0.00    +0.282 A 
ATOM      6  O   UNL     1      -9.599  -8.373  55.970  0.00  0.00    -0.265 OA
ATOM      7  N   UNL     1      -8.569  -6.997  54.396  0.00  0.00    -0.262 N 
ATOM      8  C   UNL     1      -7.847  -6.819  53.197  0.00  0.00    +0.333 A 
ATOM      9  O   UNL     1      -7.511  -5.696  52.813  0.00  0.00    -0.246 OA
ATOM     10  C   UNL     1      -8.910  -5.791  55.124  0.00  0.00    +0.020 C 
ATOM     11  N   UNL     1      -8.852 -10.656  54.239  0.00  0.00    -0.339 N 
ATOM     12  C   UNL     1      -8.301 -11.269  53.143  0.00  0.00    +0.096 A 
ATOM     13  N   UNL     1      -7.732 -10.400  52.331  0.00  0.00    -0.218 N 
ATOM     14  H   UNL     1      -9.322 -11.094  54.983  0.00  0.00    +0.000 HD
ATOM     15  H   UNL     1      -7.265 -10.583  51.484  0.00  0.00    +0.000 HD
ENDROOT
TORSDOF 0
ENDMDL
MODEL 8
REMARK VINA RESULT:    -5.027      2.435      3.806
REMARK INTER + INTRA:          -5.027
REMARK INTER:                  -5.027
REMARK INTRA:                   0.000
REMARK UNBOUND:                 0.000
REMARK  Name = Theophylline
REMARK  2 active torsions:
REMARK  status: ('A' for Active; 'I' for Inactive)
REMARK    1  A    between atoms: C_1  and  N_2
REMARK    2  A    between atoms: N_7  and  C_10
REMARK                            x       y       z     vdW  Elec       q    Type
REMARK                         _______ _______ _______ _____ _____    ______ ____
ROOT
ATOM      1  C   UNL     1      -9.319 -11.332  55.558  0.00  0.00    +0.018 C 
ATOM      2  N   UNL     1      -8.726 -10.706  54.394  0.00  0.00    -0.280 N 
ATOM      3  C   UNL     1      -8.233 -11.446  53.349  0.00  0.00    +0.168 A 
ATOM      4  C   UNL     1      -7.675 -10.852  52.260  0.00  0.00    +0.149 A 
ATOM      5  C   UNL     1      -7.545  -9.448  52.107  0.00  0.00    +0.282 A 
ATOM      6  O   UNL     1      -7.041  -8.943  51.110  0.00  0.00    -0.265 OA
ATOM      7  N   UNL     1      -8.044  -8.740  53.203  0.00  0.00    -0.262 N 
ATOM      8  C   UNL     1      -8.640  -9.312  54.347  0.00  0.00    +0.333 A 
ATOM      9  O   UNL     1      -9.065  -8.610  55.267  0.00  0.00    -0.246 OA
ATOM     10  C   UNL     1      -7.939  -7.294  53.191  0.00  0.00    +0.020 C 
ATOM     11  N   UNL     1      -7.301 -11.874  51.438  0.00  0.00    -0.339 N 
ATOM     12  C   UNL     1      -7.644 -13.037  52.078  0.00  0.00    +0.096 A 
ATOM     13  N   UNL     1      -8.218 -12.804  53.242  0.00  0.00    -0.218 N 
ATOM     14  H   UNL     1      -6.869 -11.793  50.558  0.00  0.00    +0.000 HD
ATOM     15  H   UNL     1      -8.559 -13.462  53.888  0.00  0.00    +0.000 HD
ENDROOT
TORSDOF 0
ENDMDL
MODEL 9
REMARK VINA RESULT:    -5.016      5.302      6.997
REMARK INTER + INTRA:          -5.016
REMARK INTER:                  -5.016
REMARK INTRA:                   0.000
REMARK UNBOUND:                 0.000
REMARK  Name = Theophylline
REMARK  2 active torsions:
REMARK  status: ('A' for Active; 'I' for Inactive)
REMARK    1  A    between atoms: C_1  and  N_2
REMARK    2  A    between atoms: N_7  and  C_10
REMARK                            x       y       z     vdW  Elec       q    Type
REMARK                         _______ _______ _______ _____ _____    ______ ____
ROOT
ATOM      1  C   UNL     1     -11.471  -9.525  59.819  0.00  0.00    +0.018 C 
ATOM      2  N   UNL     1     -10.799  -9.401  58.542  0.00  0.00    -0.280 N 
ATOM      3  C   UNL     1     -10.578 -10.488  57.735  0.00  0.00    +0.168 A 
ATOM      4  C   UNL     1      -9.944 -10.365  56.538  0.00  0.00    +0.149 A 
ATOM      5  C   UNL     1      -9.456  -9.136  56.026  0.00  0.00    +0.282 A 
ATOM      6  O   UNL     1      -8.893  -9.056  54.940  0.00  0.00    -0.265 OA
ATOM      7  N   UNL     1      -9.689  -8.063  56.891  0.00  0.00    -0.262 N 
ATOM      8  C   UNL     1     -10.351  -8.142  58.135  0.00  0.00    +0.333 A 
ATOM      9  O   UNL     1     -10.523  -7.140  58.834  0.00  0.00    -0.246 OA
ATOM     10  C   UNL     1      -9.206  -6.752  56.505  0.00  0.00    +0.020 C 
ATOM     11  N   UNL     1      -9.899 -11.625  56.016  0.00  0.00    -0.339 N 
ATOM     12  C   UNL     1     -10.502 -12.448  56.932  0.00  0.00    +0.096 A 
ATOM     13  N   UNL     1     -10.928 -11.780  57.985  0.00  0.00    -0.218 N 
ATOM     14  H   UNL     1      -9.511 -11.890  55.152  0.00  0.00    +0.000 HD
ATOM     15  H   UNL     1     -11.395 -12.135  58.776  0.00  0.00    +0.000 HD
ENDROOT
TORSDOF 0
ENDMDL
