@<TRIPOS>MOLECULE
Theophylline
 21 22 0 0 0
SMALL
GASTEIGER

@<TRIPOS>ATOM
      1 C           0.1622    2.8560    0.0052 C.3     1  UNL1        0.0181
      2 N           0.1857    1.4078   -0.0012 N.ar    1  UNL1       -0.2796
      3 C          -0.9694    0.6670   -0.0012 C.ar    1  UNL1        0.1676
      4 C          -0.9388   -0.6926   -0.0041 C.ar    1  UNL1        0.1488
      5 C           0.2561   -1.4557   -0.0002 C.ar    1  UNL1        0.2820
      6 O           0.2496   -2.6820   -0.0077 O.2     1  UNL1       -0.2652
      7 N           1.4030   -0.6577    0.0185 N.ar    1  UNL1       -0.2622
      8 C           1.4196    0.7528    0.0105 C.ar    1  UNL1        0.3331
      9 O           2.4825    1.3815    0.0176 O.2     1  UNL1       -0.2462
     10 C           2.6946   -1.3141    0.0618 C.3     1  UNL1        0.0196
     11 N          -2.2446   -1.0865   -0.0026 N.ar    1  UNL1       -0.3389
     12 C          -2.9992    0.0581    0.0107 C.ar    1  UNL1        0.0963
     13 N          -2.2458    1.1400    0.0070 N.ar    1  UNL1       -0.2179
     14 H          -0.8586    3.2469   -0.0139 H       1  UNL1        0.0458
     15 H           0.7052    3.2252   -0.8707 H       1  UNL1        0.0458
     16 H           0.6691    3.2147    0.9067 H       1  UNL1        0.0458
     17 H           2.6123   -2.4038    0.0513 H       1  UNL1        0.0458
     18 H           3.2151   -1.0068    0.9751 H       1  UNL1        0.0458
     19 H           3.2903   -0.9927   -0.7988 H       1  UNL1        0.0458
     20 H          -2.5842   -2.0398   -0.0029 H       1  UNL1        0.1670
     21 H          -4.0811    0.0399    0.0250 H       1  UNL1        0.1027
@<TRIPOS>BOND
     1     1     2    1
     2     2     3   ar
     3     3     4   ar
     4     4     5   ar
     5     5     6    2
     6     5     7   ar
     7     7     8   ar
     8     2     8   ar
     9     8     9    2
    10     7    10    1
    11     4    11   ar
    12    11    12   ar
    13    12    13   ar
    14     3    13   ar
    15     1    14    1
    16     1    15    1
    17     1    16    1
    18    10    17    1
    19    10    18    1
    20    10    19    1
    21    11    20    1
    22    12    21    1
