REMARK  Name = Theophylline
REMARK  2 active torsions:
REMARK  status: ('A' for Active; 'I' for Inactive)
REMARK    1  A    between atoms: C_1  and  N_2
REMARK    2  A    between atoms: N_7  and  C_10
REMARK                            x       y       z     vdW  Elec       q    Type
REMARK                         _______ _______ _______ _____ _____    ______ ____
ROOT
ATOM      1  C   UNL     1       0.162   2.856   0.005  0.00  0.00    +0.018 C
ATOM      2  N   UNL     1       0.186   1.408  -0.001  0.00  0.00    -0.280 N
ATOM      3  C   UNL     1      -0.969   0.667  -0.001  0.00  0.00    +0.168 A
ATOM      4  C   UNL     1      -0.939  -0.693  -0.004  0.00  0.00    +0.149 A
ATOM      5  C   UNL     1       0.256  -1.456  -0.000  0.00  0.00    +0.282 A
ATOM      6  O   UNL     1       0.250  -2.682  -0.008  0.00  0.00    -0.265 OA
ATOM      7  N   UNL     1       1.403  -0.658   0.018  0.00  0.00    -0.262 N
ATOM      8  C   UNL     1       1.420   0.753   0.011  0.00  0.00    +0.333 A
ATOM      9  O   UNL     1       2.482   1.381   0.018  0.00  0.00    -0.246 OA
ATOM     10  C   UNL     1       2.695  -1.314   0.062  0.00  0.00    +0.020 C
ATOM     11  N   UNL     1      -2.245  -1.087  -0.003  0.00  0.00    -0.339 N
ATOM     12  C   UNL     1      -2.999   0.058   0.011  0.00  0.00    +0.096 A
ATOM     13  N   UNL     1      -2.246   1.140   0.007  0.00  0.00    -0.218 N
ATOM     14  H   UNL     1      -2.580  -2.012  -0.010  0.00  0.00    +0.000 HD
ATOM     15  H   UNL     1      -2.540   2.079   0.010  0.00  0.00    +0.000 HD
ENDROOT
TORSDOF 0
