REMARK  Name = CPCPX
REMARK  7 active torsions:
REMARK  status: ('A' for Active; 'I' for Inactive)
REMARK    1  A    between atoms: C_1  and  C_2
REMARK    2  A    between atoms: C_2  and  C_3
REMARK    3  A    between atoms: C_3  and  N_4
REMARK    4  A    between atoms: C_9  and  C_10
REMARK    5  A    between atoms: N_17  and  C_18
REMARK    6  A    between atoms: C_18  and  C_19
REMARK    7  A    between atoms: C_19  and  C_20
REMARK                            x       y       z     vdW  Elec       q    Type
REMARK                         _______ _______ _______ _____ _____    ______ ____
ROOT
ATOM      1  N   UNL     1       4.539   0.179  -1.517  0.00  0.00    -0.259 N
ATOM      2  C   UNL     1       5.181  -1.036  -1.819  0.00  0.00    +0.284 A
ATOM      3  O   UNL     1       4.585  -2.079  -2.075  0.00  0.00    -0.265 OA
ATOM      4  C   UNL     1       6.620  -0.936  -1.798  0.00  0.00    +0.171 A
ATOM      5  N   UNL     1       7.546  -1.921  -2.031  0.00  0.00    -0.225 N
ATOM      6  C   UNL     1       8.725  -1.341  -1.893  0.00  0.00    +0.113 A
ATOM      7  N   UNL     1       8.573  -0.009  -1.558  0.00  0.00    -0.328 N
ATOM      8  C   UNL     1       7.233   0.250  -1.507  0.00  0.00    +0.148 A
ATOM      9  N   UNL     1       6.582   1.433  -1.209  0.00  0.00    -0.278 N
ATOM     10  C   UNL     1       5.168   1.407  -1.220  0.00  0.00    +0.334 A
ATOM     11  O   UNL     1       4.513   2.426  -0.977  0.00  0.00    -0.246 OA
ATOM     12  H   UNL     1       7.369  -2.864  -2.255  0.00  0.00    +0.000 HD
ATOM     13  H   UNL     1       9.298   0.636  -1.387  0.00  0.00    +0.000 HD
ENDROOT
BRANCH   6  14
ATOM     14  C   UNL     1      10.051  -1.996  -2.094  0.00  0.00    +0.017 C
ATOM     15  C   UNL     1      10.222  -2.529  -3.519  0.00  0.00    -0.043 C
ATOM     16  C   UNL     1      11.272  -3.632  -3.416  0.00  0.00    -0.052 C
ATOM     17  C   UNL     1      11.352  -4.016  -1.940  0.00  0.00    -0.052 C
ATOM     18  C   UNL     1      10.222  -3.261  -1.252  0.00  0.00    -0.043 C
ENDBRANCH   6  14
BRANCH   1  19
ATOM     19  C   UNL     1       3.079   0.154  -1.525  0.00  0.00    +0.031 C
BRANCH  19  21
ATOM     20  C   UNL     1       0.989   0.418  -2.909  0.00  0.00    -0.064 C
ATOM     21  C   UNL     1       2.510   0.435  -2.918  0.00  0.00    -0.038 C
ENDBRANCH  19  21
ENDBRANCH   1  19
BRANCH   9  22
ATOM     22  C   UNL     1       7.263   2.674  -0.830  0.00  0.00    +0.029 C
BRANCH  22  23
ATOM     23  C   UNL     1       7.657   3.579  -2.002  0.00  0.00    -0.038 C
ATOM     24  C   UNL     1       6.482   4.136  -2.792  0.00  0.00    -0.064 C
ENDBRANCH  22  23
ENDBRANCH   9  22
TORSDOF 5
