@<TRIPOS>MOLECULE
CPCPX
 46 48 0 0 0
SMALL
GASTEIGER

@<TRIPOS>ATOM
      1 C           0.9886    0.4177   -2.9092 C.3     1  UNL1       -0.0637
      2 C           2.5097    0.4348   -2.9183 C.3     1  UNL1       -0.0376
      3 C           3.0793    0.1537   -1.5249 C.3     1  UNL1        0.0308
      4 N           4.5393    0.1793   -1.5169 N.ar    1  UNL1       -0.2590
      5 C           5.1809   -1.0357   -1.8190 C.ar    1  UNL1        0.2842
      6 O           4.5853   -2.0791   -2.0753 O.2     1  UNL1       -0.2651
      7 C           6.6201   -0.9365   -1.7981 C.ar    1  UNL1        0.1707
      8 N           7.5458   -1.9215   -2.0315 N.ar    1  UNL1       -0.2251
      9 C           8.7245   -1.3406   -1.8934 C.ar    1  UNL1        0.1126
     10 C          10.0508   -1.9964   -2.0943 C.3     1  UNL1        0.0172
     11 C          10.2221   -2.5285   -3.5186 C.3     1  UNL1       -0.0434
     12 C          11.2724   -3.6320   -3.4161 C.3     1  UNL1       -0.0524
     13 C          11.3522   -4.0161   -1.9405 C.3     1  UNL1       -0.0524
     14 C          10.2219   -3.2610   -1.2515 C.3     1  UNL1       -0.0434
     15 N           8.5734   -0.0085   -1.5579 N.ar    1  UNL1       -0.3276
     16 C           7.2330    0.2497   -1.5073 C.ar    1  UNL1        0.1478
     17 N           6.5821    1.4329   -1.2092 N.ar    1  UNL1       -0.2779
     18 C           7.2625    2.6739   -0.8299 C.3     1  UNL1        0.0292
     19 C           7.6568    3.5791   -2.0025 C.3     1  UNL1       -0.0376
     20 C           6.4818    4.1365   -2.7921 C.3     1  UNL1       -0.0637
     21 C           5.1685    1.4074   -1.2201 C.ar    1  UNL1        0.3335
     22 O           4.5125    2.4260   -0.9770 O.2     1  UNL1       -0.2462
     23 H           0.5988    0.6386   -3.9078 H       1  UNL1        0.0230
     24 H           0.5918    1.1671   -2.2169 H       1  UNL1        0.0230
     25 H           0.6088   -0.5637   -2.6070 H       1  UNL1        0.0230
     26 H           2.8591    1.4100   -3.2767 H       1  UNL1        0.0280
     27 H           2.8735   -0.3130   -3.6331 H       1  UNL1        0.0280
     28 H           2.7307   -0.8264   -1.1774 H       1  UNL1        0.0494
     29 H           2.6936    0.8911   -0.8108 H       1  UNL1        0.0494
     30 H          10.8666   -1.2967   -1.8665 H       1  UNL1        0.0379
     31 H          10.5229   -1.7424   -4.2190 H       1  UNL1        0.0272
     32 H           9.2863   -2.9579   -3.8994 H       1  UNL1        0.0272
     33 H          12.2476   -3.2781   -3.7680 H       1  UNL1        0.0265
     34 H          10.9942   -4.4900   -4.0379 H       1  UNL1        0.0265
     35 H          12.3203   -3.7063   -1.5302 H       1  UNL1        0.0265
     36 H          11.2652   -5.0976   -1.7942 H       1  UNL1        0.0265
     37 H          10.4578   -3.0380   -0.2058 H       1  UNL1        0.0272
     38 H           9.3129   -3.8758   -1.2603 H       1  UNL1        0.0272
     39 H           9.3262    0.6444   -1.3917 H       1  UNL1        0.1685
     40 H           8.1677    2.4065   -0.2709 H       1  UNL1        0.0494
     41 H           6.6306    3.2340   -0.1321 H       1  UNL1        0.0494
     42 H           8.3277    3.0451   -2.6841 H       1  UNL1        0.0280
     43 H           8.2242    4.4282   -1.5993 H       1  UNL1        0.0280
     44 H           5.9126    3.3385   -3.2777 H       1  UNL1        0.0230
     45 H           6.8434    4.8088   -3.5772 H       1  UNL1        0.0230
     46 H           5.8067    4.7083   -2.1477 H       1  UNL1        0.0230
@<TRIPOS>BOND
     1     1     2    1
     2     2     3    1
     3     3     4    1
     4     4     5   ar
     5     5     6    2
     6     5     7   ar
     7     7     8   ar
     8     8     9   ar
     9     9    10    1
    10    10    11    1
    11    11    12    1
    12    12    13    1
    13    13    14    1
    14    10    14    1
    15     9    15   ar
    16    15    16   ar
    17     7    16   ar
    18    16    17   ar
    19    17    18    1
    20    18    19    1
    21    19    20    1
    22    17    21   ar
    23     4    21   ar
    24    21    22    2
    25     1    23    1
    26     1    24    1
    27     1    25    1
    28     2    26    1
    29     2    27    1
    30     3    28    1
    31     3    29    1
    32    10    30    1
    33    11    31    1
    34    11    32    1
    35    12    33    1
    36    12    34    1
    37    13    35    1
    38    13    36    1
    39    14    37    1
    40    14    38    1
    41    15    39    1
    42    18    40    1
    43    18    41    1
    44    19    42    1
    45    19    43    1
    46    20    44    1
    47    20    45    1
    48    20    46    1
