MODEL 1
REMARK VINA RESULT:    -7.990      0.000      0.000
REMARK INTER + INTRA:         -10.768
REMARK INTER:                 -10.325
REMARK INTRA:                  -0.443
REMARK UNBOUND:                -0.443
REMARK  Name = CPCPX
REMARK  7 active torsions:
REMARK  status: ('A' for Active; 'I' for Inactive)
REMARK    1  A    between atoms: C_1  and  C_2
REMARK    2  A    between atoms: C_2  and  C_3
REMARK    3  A    between atoms: C_3  and  N_4
REMARK    4  A    between atoms: C_9  and  C_10
REMARK    5  A    between atoms: N_17  and  C_18
REMARK    6  A    between atoms: C_18  and  C_19
REMARK    7  A    between atoms: C_19  and  C_20
REMARK                            x       y       z     vdW  Elec       q    Type
REMARK                         _______ _______ _______ _____ _____    ______ ____
ROOT
ATOM      1  N   UNL     1      -9.911  -9.313  56.634  0.00  0.00    -0.259 N 
ATOM      2  C   UNL     1      -9.404 -10.582  56.301  0.00  0.00    +0.284 A 
ATOM      3  O   UNL     1      -9.459 -11.557  57.046  0.00  0.00    -0.265 OA
ATOM      4  C   UNL     1      -8.809 -10.628  54.987  0.00  0.00    +0.171 A 
ATOM      5  N   UNL     1      -8.215 -11.691  54.357  0.00  0.00    -0.225 N 
ATOM      6  C   UNL     1      -7.824 -11.235  53.180  0.00  0.00    +0.113 A 
ATOM      7  N   UNL     1      -8.140  -9.896  53.051  0.00  0.00    -0.328 N 
ATOM      8  C   UNL     1      -8.775  -9.513  54.198  0.00  0.00    +0.148 A 
ATOM      9  N   UNL     1      -9.277  -8.272  54.547  0.00  0.00    -0.278 N 
ATOM     10  C   UNL     1      -9.882  -8.160  55.820  0.00  0.00    +0.334 A 
ATOM     11  O   UNL     1     -10.365  -7.089  56.200  0.00  0.00    -0.246 OA
ATOM     12  H   UNL     1      -8.102 -12.605  54.709  0.00  0.00    +0.000 HD
ATOM     13  H   UNL     1      -7.943  -9.323  52.275  0.00  0.00    +0.000 HD
ENDROOT
BRANCH   6  14
ATOM     14  C   UNL     1      -7.162 -12.035  52.108  0.00  0.00    +0.017 C 
ATOM     15  C   UNL     1      -8.093 -12.293  50.921  0.00  0.00    -0.043 C 
ATOM     16  C   UNL     1      -7.544 -13.543  50.239  0.00  0.00    -0.052 C 
ATOM     17  C   UNL     1      -6.628 -14.222  51.255  0.00  0.00    -0.052 C 
ATOM     18  C   UNL     1      -6.809 -13.453  52.558  0.00  0.00    -0.043 C 
ENDBRANCH   6  14
BRANCH   1  19
ATOM     19  C   UNL     1     -10.534  -9.194  57.949  0.00  0.00    +0.031 C 
BRANCH  19  21
ATOM     20  C   UNL     1     -12.716  -8.977  59.192  0.00  0.00    -0.064 C 
ATOM     21  C   UNL     1     -12.053  -9.369  57.880  0.00  0.00    -0.038 C 
ENDBRANCH  19  21
ENDBRANCH   1  19
BRANCH   9  22
ATOM     22  C   UNL     1      -9.163  -7.074  53.710  0.00  0.00    +0.029 C 
BRANCH  22  23
ATOM     23  C   UNL     1      -7.836  -6.319  53.838  0.00  0.00    -0.038 C 
ATOM     24  C   UNL     1      -7.138  -6.040  52.515  0.00  0.00    -0.064 C 
ENDBRANCH  22  23
ENDBRANCH   9  22
TORSDOF 5
ENDMDL
MODEL 2
REMARK VINA RESULT:    -7.852      2.750      5.064
REMARK INTER + INTRA:         -10.591
REMARK INTER:                 -10.045
REMARK INTRA:                  -0.546
REMARK UNBOUND:                -0.443
REMARK  Name = CPCPX
REMARK  7 active torsions:
REMARK  status: ('A' for Active; 'I' for Inactive)
REMARK    1  A    between atoms: C_1  and  C_2
REMARK    2  A    between atoms: C_2  and  C_3
REMARK    3  A    between atoms: C_3  and  N_4
REMARK    4  A    between atoms: C_9  and  C_10
REMARK    5  A    between atoms: N_17  and  C_18
REMARK    6  A    between atoms: C_18  and  C_19
REMARK    7  A    between atoms: C_19  and  C_20
REMARK                            x       y       z     vdW  Elec       q    Type
REMARK                         _______ _______ _______ _____ _____    ______ ____
ROOT
ATOM      1  N   UNL     1     -10.661  -9.409  59.036  0.00  0.00    -0.259 N 
ATOM      2  C   UNL     1     -10.511  -8.163  58.401  0.00  0.00    +0.284 A 
ATOM      3  O   UNL     1     -10.772  -7.088  58.935  0.00  0.00    -0.265 OA
ATOM      4  C   UNL     1     -10.017  -8.272  57.050  0.00  0.00    +0.171 A 
ATOM      5  N   UNL     1      -9.770  -7.267  56.149  0.00  0.00    -0.225 N 
ATOM      6  C   UNL     1      -9.335  -7.868  55.056  0.00  0.00    +0.113 A 
ATOM      7  N   UNL     1      -9.317  -9.239  55.232  0.00  0.00    -0.328 N 
ATOM      8  C   UNL     1      -9.742  -9.494  56.504  0.00  0.00    +0.148 A 
ATOM      9  N   UNL     1      -9.901 -10.709  57.146  0.00  0.00    -0.278 N 
ATOM     10  C   UNL     1     -10.374 -10.673  58.478  0.00  0.00    +0.334 A 
ATOM     11  O   UNL     1     -10.530 -11.715  59.124  0.00  0.00    -0.246 OA
ATOM     12  H   UNL     1      -9.890  -6.299  56.289  0.00  0.00    +0.000 HD
ATOM     13  H   UNL     1      -9.047  -9.909  54.562  0.00  0.00    +0.000 HD
ENDROOT
BRANCH   6  14
ATOM     14  C   UNL     1      -8.890  -7.190  53.803  0.00  0.00    +0.017 C 
ATOM     15  C   UNL     1      -7.941  -8.064  52.979  0.00  0.00    -0.043 C 
ATOM     16  C   UNL     1      -7.137  -7.092  52.120  0.00  0.00    -0.052 C 
ATOM     17  C   UNL     1      -7.300  -5.715  52.759  0.00  0.00    -0.052 C 
ATOM     18  C   UNL     1      -8.037  -5.949  54.071  0.00  0.00    -0.043 C 
ENDBRANCH   6  14
BRANCH   1  19
ATOM     19  C   UNL     1     -11.153  -9.375  60.411  0.00  0.00    +0.031 C 
BRANCH  19  21
ATOM     20  C   UNL     1     -13.168 -10.476  61.451  0.00  0.00    -0.064 C 
ATOM     21  C   UNL     1     -12.682  -9.418  60.472  0.00  0.00    -0.038 C 
ENDBRANCH  19  21
ENDBRANCH   1  19
BRANCH   9  22
ATOM     22  C   UNL     1      -9.667 -12.010  56.514  0.00  0.00    +0.029 C 
BRANCH  22  23
ATOM     23  C   UNL     1     -10.866 -12.583  55.752  0.00  0.00    -0.038 C 
ATOM     24  C   UNL     1     -10.642 -12.752  54.256  0.00  0.00    -0.064 C 
ENDBRANCH  22  23
ENDBRANCH   9  22
TORSDOF 5
ENDMDL
MODEL 3
REMARK VINA RESULT:    -7.662      2.056      5.116
REMARK INTER + INTRA:         -10.345
REMARK INTER:                  -9.889
REMARK INTRA:                  -0.456
REMARK UNBOUND:                -0.443
REMARK  Name = CPCPX
REMARK  7 active torsions:
REMARK  status: ('A' for Active; 'I' for Inactive)
REMARK    1  A    between atoms: C_1  and  C_2
REMARK    2  A    between atoms: C_2  and  C_3
REMARK    3  A    between atoms: C_3  and  N_4
REMARK    4  A    between atoms: C_9  and  C_10
REMARK    5  A    between atoms: N_17  and  C_18
REMARK    6  A    between atoms: C_18  and  C_19
REMARK    7  A    between atoms: C_19  and  C_20
REMARK                            x       y       z     vdW  Elec       q    Type
REMARK                         _______ _______ _______ _____ _____    ______ ____
ROOT
ATOM      1  N   UNL     1      -9.527 -10.862  54.903  0.00  0.00    -0.259 N 
ATOM      2  C   UNL     1      -9.050  -9.538  54.892  0.00  0.00    +0.284 A 
ATOM      3  O   UNL     1      -9.198  -8.751  55.823  0.00  0.00    -0.265 OA
ATOM      4  C   UNL     1      -8.365  -9.194  53.671  0.00  0.00    +0.171 A 
ATOM      5  N   UNL     1      -7.792  -7.996  53.324  0.00  0.00    -0.225 N 
ATOM      6  C   UNL     1      -7.296  -8.176  52.112  0.00  0.00    +0.113 A 
ATOM      7  N   UNL     1      -7.556  -9.459  51.669  0.00  0.00    -0.328 N 
ATOM      8  C   UNL     1      -8.227 -10.109  52.665  0.00  0.00    +0.148 A 
ATOM      9  N   UNL     1      -8.708 -11.405  52.695  0.00  0.00    -0.278 N 
ATOM     10  C   UNL     1      -9.384 -11.812  53.869  0.00  0.00    +0.334 A 
ATOM     11  O   UNL     1      -9.831 -12.958  53.978  0.00  0.00    -0.246 OA
ATOM     12  H   UNL     1      -7.758  -7.173  53.865  0.00  0.00    +0.000 HD
ATOM     13  H   UNL     1      -7.303  -9.836  50.795  0.00  0.00    +0.000 HD
ENDROOT
BRANCH   6  14
ATOM     14  C   UNL     1      -6.532  -7.168  51.321  0.00  0.00    +0.017 C 
ATOM     15  C   UNL     1      -7.007  -5.738  51.595  0.00  0.00    -0.043 C 
ATOM     16  C   UNL     1      -6.606  -4.934  50.361  0.00  0.00    -0.052 C 
ATOM     17  C   UNL     1      -6.332  -5.950  49.253  0.00  0.00    -0.052 C 
ATOM     18  C   UNL     1      -6.757  -7.301  49.814  0.00  0.00    -0.043 C 
ENDBRANCH   6  14
BRANCH   1  19
ATOM     19  C   UNL     1     -10.227 -11.283  56.113  0.00  0.00    +0.031 C 
BRANCH  19  21
ATOM     20  C   UNL     1      -9.964 -12.759  58.139  0.00  0.00    -0.064 C 
ATOM     21  C   UNL     1      -9.263 -11.812  57.177  0.00  0.00    -0.038 C 
ENDBRANCH  19  21
ENDBRANCH   1  19
BRANCH   9  22
ATOM     22  C   UNL     1      -8.610 -12.344  51.574  0.00  0.00    +0.029 C 
BRANCH  22  23
ATOM     23  C   UNL     1      -7.219 -12.948  51.356  0.00  0.00    -0.038 C 
ATOM     24  C   UNL     1      -6.750 -13.872  52.471  0.00  0.00    -0.064 C 
ENDBRANCH  22  23
ENDBRANCH   9  22
TORSDOF 5
ENDMDL
MODEL 4
REMARK VINA RESULT:    -7.440      1.560      1.871
REMARK INTER + INTRA:         -10.057
REMARK INTER:                  -9.563
REMARK INTRA:                  -0.495
REMARK UNBOUND:                -0.443
REMARK  Name = CPCPX
REMARK  7 active torsions:
REMARK  status: ('A' for Active; 'I' for Inactive)
REMARK    1  A    between atoms: C_1  and  C_2
REMARK    2  A    between atoms: C_2  and  C_3
REMARK    3  A    between atoms: C_3  and  N_4
REMARK    4  A    between atoms: C_9  and  C_10
REMARK    5  A    between atoms: N_17  and  C_18
REMARK    6  A    between atoms: C_18  and  C_19
REMARK    7  A    between atoms: C_19  and  C_20
REMARK                            x       y       z     vdW  Elec       q    Type
REMARK                         _______ _______ _______ _____ _____    ______ ____
ROOT
ATOM      1  N   UNL     1     -10.155 -10.083  58.044  0.00  0.00    -0.259 N 
ATOM      2  C   UNL     1      -9.578 -11.164  57.353  0.00  0.00    +0.284 A 
ATOM      3  O   UNL     1      -9.433 -12.284  57.836  0.00  0.00    -0.265 OA
ATOM      4  C   UNL     1      -9.172 -10.826  56.011  0.00  0.00    +0.171 A 
ATOM      5  N   UNL     1      -8.570 -11.629  55.075  0.00  0.00    -0.225 N 
ATOM      6  C   UNL     1      -8.395 -10.866  54.011  0.00  0.00    +0.113 A 
ATOM      7  N   UNL     1      -8.855  -9.586  54.253  0.00  0.00    -0.328 N 
ATOM      8  C   UNL     1      -9.357  -9.564  55.522  0.00  0.00    +0.148 A 
ATOM      9  N   UNL     1      -9.923  -8.513  56.221  0.00  0.00    -0.278 N 
ATOM     10  C   UNL     1     -10.352  -8.779  57.542  0.00  0.00    +0.334 A 
ATOM     11  O   UNL     1     -10.880  -7.896  58.227  0.00  0.00    -0.246 OA
ATOM     12  H   UNL     1      -8.322 -12.578  55.175  0.00  0.00    +0.000 HD
ATOM     13  H   UNL     1      -8.826  -8.827  53.624  0.00  0.00    +0.000 HD
ENDROOT
BRANCH   6  14
ATOM     14  C   UNL     1      -7.815 -11.303  52.707  0.00  0.00    +0.017 C 
ATOM     15  C   UNL     1      -8.875 -11.406  51.608  0.00  0.00    -0.043 C 
ATOM     16  C   UNL     1      -8.304 -12.383  50.583  0.00  0.00    -0.052 C 
ATOM     17  C   UNL     1      -7.185 -13.145  51.290  0.00  0.00    -0.052 C 
ATOM     18  C   UNL     1      -7.256 -12.726  52.753  0.00  0.00    -0.043 C 
ENDBRANCH   6  14
BRANCH   1  19
ATOM     19  C   UNL     1     -10.596 -10.354  59.409  0.00  0.00    +0.031 C 
BRANCH  19  21
ATOM     20  C   UNL     1     -10.045  -9.783  61.802  0.00  0.00    -0.064 C 
ATOM     21  C   UNL     1      -9.480 -10.114  60.429  0.00  0.00    -0.038 C 
ENDBRANCH  19  21
ENDBRANCH   1  19
BRANCH   9  22
ATOM     22  C   UNL     1     -10.046  -7.149  55.698  0.00  0.00    +0.029 C 
BRANCH  22  23
ATOM     23  C   UNL     1      -8.744  -6.341  55.691  0.00  0.00    -0.038 C 
ATOM     24  C   UNL     1      -8.255  -5.946  54.305  0.00  0.00    -0.064 C 
ENDBRANCH  22  23
ENDBRANCH   9  22
TORSDOF 5
ENDMDL
MODEL 5
REMARK VINA RESULT:    -7.220      2.091      6.870
REMARK INTER + INTRA:          -9.773
REMARK INTER:                  -9.420
REMARK INTRA:                  -0.353
REMARK UNBOUND:                -0.443
REMARK  Name = CPCPX
REMARK  7 active torsions:
REMARK  status: ('A' for Active; 'I' for Inactive)
REMARK    1  A    between atoms: C_1  and  C_2
REMARK    2  A    between atoms: C_2  and  C_3
REMARK    3  A    between atoms: C_3  and  N_4
REMARK    4  A    between atoms: C_9  and  C_10
REMARK    5  A    between atoms: N_17  and  C_18
REMARK    6  A    between atoms: C_18  and  C_19
REMARK    7  A    between atoms: C_19  and  C_20
REMARK                            x       y       z     vdW  Elec       q    Type
REMARK                         _______ _______ _______ _____ _____    ______ ____
ROOT
ATOM      1  N   UNL     1      -8.055  -8.870  52.097  0.00  0.00    -0.259 N 
ATOM      2  C   UNL     1      -8.478  -8.088  53.187  0.00  0.00    +0.284 A 
ATOM      3  O   UNL     1      -8.528  -6.861  53.169  0.00  0.00    -0.265 OA
ATOM      4  C   UNL     1      -8.849  -8.875  54.338  0.00  0.00    +0.171 A 
ATOM      5  N   UNL     1      -9.289  -8.439  55.562  0.00  0.00    -0.225 N 
ATOM      6  C   UNL     1      -9.494  -9.532  56.276  0.00  0.00    +0.113 A 
ATOM      7  N   UNL     1      -9.175 -10.658  55.540  0.00  0.00    -0.328 N 
ATOM      8  C   UNL     1      -8.774 -10.239  54.304  0.00  0.00    +0.148 A 
ATOM      9  N   UNL     1      -8.352 -10.988  53.222  0.00  0.00    -0.278 N 
ATOM     10  C   UNL     1      -7.981 -10.279  52.056  0.00  0.00    +0.334 A 
ATOM     11  O   UNL     1      -7.605 -10.877  51.042  0.00  0.00    -0.246 OA
ATOM     12  H   UNL     1      -9.425  -7.507  55.849  0.00  0.00    +0.000 HD
ATOM     13  H   UNL     1      -9.228 -11.591  55.851  0.00  0.00    +0.000 HD
ENDROOT
BRANCH   6  14
ATOM     14  C   UNL     1     -10.022  -9.579  57.671  0.00  0.00    +0.017 C 
ATOM     15  C   UNL     1     -11.552  -9.611  57.708  0.00  0.00    -0.043 C 
ATOM     16  C   UNL     1     -11.936  -9.069  59.082  0.00  0.00    -0.052 C 
ATOM     17  C   UNL     1     -10.707  -8.337  59.617  0.00  0.00    -0.052 C 
ATOM     18  C   UNL     1      -9.705  -8.314  58.469  0.00  0.00    -0.043 C 
ENDBRANCH   6  14
BRANCH   1  19
ATOM     19  C   UNL     1      -7.669  -8.139  50.893  0.00  0.00    +0.031 C 
BRANCH  19  21
ATOM     20  C   UNL     1      -6.090  -6.332  50.122  0.00  0.00    -0.064 C 
ATOM     21  C   UNL     1      -6.257  -7.559  51.005  0.00  0.00    -0.038 C 
ENDBRANCH  19  21
ENDBRANCH   1  19
BRANCH   9  22
ATOM     22  C   UNL     1      -8.213 -12.447  53.235  0.00  0.00    +0.029 C 
BRANCH  22  23
ATOM     23  C   UNL     1      -6.793 -12.959  53.502  0.00  0.00    -0.038 C 
ATOM     24  C   UNL     1      -6.434 -14.239  52.762  0.00  0.00    -0.064 C 
ENDBRANCH  22  23
ENDBRANCH   9  22
TORSDOF 5
ENDMDL
MODEL 6
REMARK VINA RESULT:    -6.937      3.415      5.886
REMARK INTER + INTRA:          -9.408
REMARK INTER:                  -9.092
REMARK INTRA:                  -0.316
REMARK UNBOUND:                -0.443
REMARK  Name = CPCPX
REMARK  7 active torsions:
REMARK  status: ('A' for Active; 'I' for Inactive)
REMARK    1  A    between atoms: C_1  and  C_2
REMARK    2  A    between atoms: C_2  and  C_3
REMARK    3  A    between atoms: C_3  and  N_4
REMARK    4  A    between atoms: C_9  and  C_10
REMARK    5  A    between atoms: N_17  and  C_18
REMARK    6  A    between atoms: C_18  and  C_19
REMARK    7  A    between atoms: C_19  and  C_20
REMARK                            x       y       z     vdW  Elec       q    Type
REMARK                         _______ _______ _______ _____ _____    ______ ____
ROOT
ATOM      1  N   UNL     1     -11.120  -8.735  60.521  0.00  0.00    -0.259 N 
ATOM      2  C   UNL     1     -10.897  -7.567  59.769  0.00  0.00    +0.284 A 
ATOM      3  O   UNL     1     -11.006  -6.431  60.223  0.00  0.00    -0.265 OA
ATOM      4  C   UNL     1     -10.525  -7.838  58.402  0.00  0.00    +0.171 A 
ATOM      5  N   UNL     1     -10.250  -6.941  57.401  0.00  0.00    -0.225 N 
ATOM      6  C   UNL     1      -9.967  -7.671  56.337  0.00  0.00    +0.113 A 
ATOM      7  N   UNL     1     -10.072  -9.017  56.631  0.00  0.00    -0.328 N 
ATOM      8  C   UNL     1     -10.419  -9.122  57.948  0.00  0.00    +0.148 A 
ATOM      9  N   UNL     1     -10.647 -10.257  58.704  0.00  0.00    -0.278 N 
ATOM     10  C   UNL     1     -11.007 -10.064  60.058  0.00  0.00    +0.334 A 
ATOM     11  O   UNL     1     -11.215 -11.027  60.803  0.00  0.00    -0.246 OA
ATOM     12  H   UNL     1     -10.262  -5.958  57.462  0.00  0.00    +0.000 HD
ATOM     13  H   UNL     1      -9.925  -9.764  56.006  0.00  0.00    +0.000 HD
ENDROOT
BRANCH   6  14
ATOM     14  C   UNL     1      -9.556  -7.148  55.001  0.00  0.00    +0.017 C 
ATOM     15  C   UNL     1      -8.742  -8.171  54.205  0.00  0.00    -0.043 C 
ATOM     16  C   UNL     1      -7.924  -7.352  53.209  0.00  0.00    -0.052 C 
ATOM     17  C   UNL     1      -7.928  -5.915  53.726  0.00  0.00    -0.052 C 
ATOM     18  C   UNL     1      -8.588  -5.967  55.097  0.00  0.00    -0.043 C 
ENDBRANCH   6  14
BRANCH   1  19
ATOM     19  C   UNL     1     -11.496  -8.538  61.919  0.00  0.00    +0.031 C 
BRANCH  19  21
ATOM     20  C   UNL     1      -9.505  -9.186  63.323  0.00  0.00    -0.064 C 
ATOM     21  C   UNL     1     -10.321  -8.032  62.760  0.00  0.00    -0.038 C 
ENDBRANCH  19  21
ENDBRANCH   1  19
BRANCH   9  22
ATOM     22  C   UNL     1     -10.595 -11.623  58.175  0.00  0.00    +0.029 C 
BRANCH  22  23
ATOM     23  C   UNL     1      -9.184 -12.182  57.964  0.00  0.00    -0.038 C 
ATOM     24  C   UNL     1      -8.676 -12.090  56.533  0.00  0.00    -0.064 C 
ENDBRANCH  22  23
ENDBRANCH   9  22
TORSDOF 5
ENDMDL
MODEL 7
REMARK VINA RESULT:    -6.856      2.300      2.910
REMARK INTER + INTRA:          -9.304
REMARK INTER:                  -9.177
REMARK INTRA:                  -0.127
REMARK UNBOUND:                -0.443
REMARK  Name = CPCPX
REMARK  7 active torsions:
REMARK  status: ('A' for Active; 'I' for Inactive)
REMARK    1  A    between atoms: C_1  and  C_2
REMARK    2  A    between atoms: C_2  and  C_3
REMARK    3  A    between atoms: C_3  and  N_4
REMARK    4  A    between atoms: C_9  and  C_10
REMARK    5  A    between atoms: N_17  and  C_18
REMARK    6  A    between atoms: C_18  and  C_19
REMARK    7  A    between atoms: C_19  and  C_20
REMARK                            x       y       z     vdW  Elec       q    Type
REMARK                         _______ _______ _______ _____ _____    ______ ____
ROOT
ATOM      1  N   UNL     1     -10.006 -10.668  56.620  0.00  0.00    -0.259 N 
ATOM      2  C   UNL     1      -9.557 -11.360  55.480  0.00  0.00    +0.284 A 
ATOM      3  O   UNL     1      -9.706 -12.568  55.311  0.00  0.00    -0.265 OA
ATOM      4  C   UNL     1      -8.899 -10.506  54.522  0.00  0.00    +0.171 A 
ATOM      5  N   UNL     1      -8.335 -10.850  53.320  0.00  0.00    -0.225 N 
ATOM      6  C   UNL     1      -7.859  -9.726  52.815  0.00  0.00    +0.113 A 
ATOM      7  N   UNL     1      -8.089  -8.672  53.679  0.00  0.00    -0.328 N 
ATOM      8  C   UNL     1      -8.760  -9.168  54.760  0.00  0.00    +0.148 A 
ATOM      9  N   UNL     1      -9.206  -8.507  55.890  0.00  0.00    -0.278 N 
ATOM     10  C   UNL     1      -9.868  -9.286  56.868  0.00  0.00    +0.334 A 
ATOM     11  O   UNL     1     -10.308  -8.768  57.900  0.00  0.00    -0.246 OA
ATOM     12  H   UNL     1      -8.294 -11.748  52.916  0.00  0.00    +0.000 HD
ATOM     13  H   UNL     1      -7.820  -7.734  53.540  0.00  0.00    +0.000 HD
ENDROOT
BRANCH   6  14
ATOM     14  C   UNL     1      -7.189  -9.576  51.490  0.00  0.00    +0.017 C 
ATOM     15  C   UNL     1      -6.666  -8.155  51.264  0.00  0.00    -0.043 C 
ATOM     16  C   UNL     1      -6.574  -7.993  49.749  0.00  0.00    -0.052 C 
ATOM     17  C   UNL     1      -7.436  -9.099  49.143  0.00  0.00    -0.052 C 
ATOM     18  C   UNL     1      -8.151  -9.758  50.315  0.00  0.00    -0.043 C 
ENDBRANCH   6  14
BRANCH   1  19
ATOM     19  C   UNL     1     -10.688 -11.470  57.632  0.00  0.00    +0.031 C 
BRANCH  19  21
ATOM     20  C   UNL     1     -10.439 -12.681  59.828  0.00  0.00    -0.064 C 
ATOM     21  C   UNL     1      -9.708 -12.069  58.643  0.00  0.00    -0.038 C 
ENDBRANCH  19  21
ENDBRANCH   1  19
BRANCH   9  22
ATOM     22  C   UNL     1      -8.981  -7.084  56.154  0.00  0.00    +0.029 C 
BRANCH  22  23
ATOM     23  C   UNL     1      -9.421  -6.140  55.030  0.00  0.00    -0.038 C 
ATOM     24  C   UNL     1      -8.278  -5.445  54.305  0.00  0.00    -0.064 C 
ENDBRANCH  22  23
ENDBRANCH   9  22
TORSDOF 5
ENDMDL
MODEL 8
REMARK VINA RESULT:    -6.701     10.940     12.733
REMARK INTER + INTRA:          -9.104
REMARK INTER:                  -8.701
REMARK INTRA:                  -0.403
REMARK UNBOUND:                -0.443
REMARK  Name = CPCPX
REMARK  7 active torsions:
REMARK  status: ('A' for Active; 'I' for Inactive)
REMARK    1  A    between atoms: C_1  and  C_2
REMARK    2  A    between atoms: C_2  and  C_3
REMARK    3  A    between atoms: C_3  and  N_4
REMARK    4  A    between atoms: C_9  and  C_10
REMARK    5  A    between atoms: N_17  and  C_18
REMARK    6  A    between atoms: C_18  and  C_19
REMARK    7  A    between atoms: C_19  and  C_20
REMARK                            x       y       z     vdW  Elec       q    Type
REMARK                         _______ _______ _______ _____ _____    ______ ____
ROOT
ATOM      1  N   UNL     1     -21.304 -12.016  59.181  0.00  0.00    -0.259 N 
ATOM      2  C   UNL     1     -21.732 -11.182  58.132  0.00  0.00    +0.284 A 
ATOM      3  O   UNL     1     -22.524 -10.254  58.276  0.00  0.00    -0.265 OA
ATOM      4  C   UNL     1     -21.145 -11.527  56.860  0.00  0.00    +0.171 A 
ATOM      5  N   UNL     1     -21.350 -10.936  55.639  0.00  0.00    -0.225 N 
ATOM      6  C   UNL     1     -20.596 -11.607  54.787  0.00  0.00    +0.113 A 
ATOM      7  N   UNL     1     -19.925 -12.627  55.435  0.00  0.00    -0.328 N 
ATOM      8  C   UNL     1     -20.269 -12.570  56.755  0.00  0.00    +0.148 A 
ATOM      9  N   UNL     1     -19.864 -13.380  57.800  0.00  0.00    -0.278 N 
ATOM     10  C   UNL     1     -20.396 -13.092  59.078  0.00  0.00    +0.334 A 
ATOM     11  O   UNL     1     -20.073 -13.761  60.065  0.00  0.00    -0.246 OA
ATOM     12  H   UNL     1     -21.938 -10.170  55.439  0.00  0.00    +0.000 HD
ATOM     13  H   UNL     1     -19.312 -13.278  55.020  0.00  0.00    +0.000 HD
ENDROOT
BRANCH   6  14
ATOM     14  C   UNL     1     -20.442 -11.310  53.333  0.00  0.00    +0.017 C 
ATOM     15  C   UNL     1     -21.030  -9.947  52.956  0.00  0.00    -0.043 C 
ATOM     16  C   UNL     1     -21.343 -10.039  51.465  0.00  0.00    -0.052 C 
ATOM     17  C   UNL     1     -21.361 -11.526  51.118  0.00  0.00    -0.052 C 
ATOM     18  C   UNL     1     -21.242 -12.265  52.445  0.00  0.00    -0.043 C 
ENDBRANCH   6  14
BRANCH   1  19
ATOM     19  C   UNL     1     -21.854 -11.722  60.502  0.00  0.00    +0.031 C 
BRANCH  19  21
ATOM     20  C   UNL     1     -21.629  -9.469  61.609  0.00  0.00    -0.064 C 
ATOM     21  C   UNL     1     -20.942 -10.792  61.306  0.00  0.00    -0.038 C 
ENDBRANCH  19  21
ENDBRANCH   1  19
BRANCH   9  22
ATOM     22  C   UNL     1     -18.978 -14.537  57.648  0.00  0.00    +0.029 C 
BRANCH  22  23
ATOM     23  C   UNL     1     -17.521 -14.197  57.315  0.00  0.00    -0.038 C 
ATOM     24  C   UNL     1     -16.518 -15.274  57.699  0.00  0.00    -0.064 C 
ENDBRANCH  22  23
ENDBRANCH   9  22
TORSDOF 5
ENDMDL
MODEL 9
REMARK VINA RESULT:    -6.543      2.951      4.380
REMARK INTER + INTRA:          -8.899
REMARK INTER:                  -8.641
REMARK INTRA:                  -0.257
REMARK UNBOUND:                -0.443
REMARK  Name = CPCPX
REMARK  7 active torsions:
REMARK  status: ('A' for Active; 'I' for Inactive)
REMARK    1  A    between atoms: C_1  and  C_2
REMARK    2  A    between atoms: C_2  and  C_3
REMARK    3  A    between atoms: C_3  and  N_4
REMARK    4  A    between atoms: C_9  and  C_10
REMARK    5  A    between atoms: N_17  and  C_18
REMARK    6  A    between atoms: C_18  and  C_19
REMARK    7  A    between atoms: C_19  and  C_20
REMARK                            x       y       z     vdW  Elec       q    Type
REMARK                         _______ _______ _______ _____ _____    ______ ____
ROOT
ATOM      1  N   UNL     1     -11.054  -9.447  60.660  0.00  0.00    -0.259 N 
ATOM      2  C   UNL     1     -10.992 -10.758  60.152  0.00  0.00    +0.284 A 
ATOM      3  O   UNL     1     -11.165 -11.764  60.835  0.00  0.00    -0.265 OA
ATOM      4  C   UNL     1     -10.702 -10.805  58.740  0.00  0.00    +0.171 A 
ATOM      5  N   UNL     1     -10.559 -11.907  57.936  0.00  0.00    -0.225 N 
ATOM      6  C   UNL     1     -10.297 -11.435  56.729  0.00  0.00    +0.113 A 
ATOM      7  N   UNL     1     -10.251 -10.055  56.749  0.00  0.00    -0.328 N 
ATOM      8  C   UNL     1     -10.518  -9.654  58.027  0.00  0.00    +0.148 A 
ATOM      9  N   UNL     1     -10.580  -8.374  58.547  0.00  0.00    -0.278 N 
ATOM     10  C   UNL     1     -10.869  -8.256  59.926  0.00  0.00    +0.334 A 
ATOM     11  O   UNL     1     -10.954  -7.146  60.463  0.00  0.00    -0.246 OA
ATOM     12  H   UNL     1     -10.636 -12.852  58.202  0.00  0.00    +0.000 HD
ATOM     13  H   UNL     1     -10.061  -9.466  55.981  0.00  0.00    +0.000 HD
ENDROOT
BRANCH   6  14
ATOM     14  C   UNL     1     -10.105 -12.251  55.494  0.00  0.00    +0.017 C 
ATOM     15  C   UNL     1      -9.331 -11.490  54.415  0.00  0.00    -0.043 C 
ATOM     16  C   UNL     1      -9.720 -12.152  53.095  0.00  0.00    -0.052 C 
ATOM     17  C   UNL     1     -10.998 -12.942  53.368  0.00  0.00    -0.052 C 
ATOM     18  C   UNL     1     -11.420 -12.573  54.784  0.00  0.00    -0.043 C 
ENDBRANCH   6  14
BRANCH   1  19
ATOM     19  C   UNL     1     -11.349  -9.322  62.084  0.00  0.00    +0.031 C 
BRANCH  19  21
ATOM     20  C   UNL     1     -10.406  -9.283  64.422  0.00  0.00    -0.064 C 
ATOM     21  C   UNL     1     -10.085  -9.427  62.942  0.00  0.00    -0.038 C 
ENDBRANCH  19  21
ENDBRANCH   1  19
BRANCH   9  22
ATOM     22  C   UNL     1     -10.308  -7.158  57.775  0.00  0.00    +0.029 C 
BRANCH  22  23
ATOM     23  C   UNL     1      -8.981  -7.162  57.010  0.00  0.00    -0.038 C 
ATOM     24  C   UNL     1      -9.106  -6.845  55.527  0.00  0.00    -0.064 C 
ENDBRANCH  22  23
ENDBRANCH   9  22
TORSDOF 5
ENDMDL
