MODEL 1
REMARK VINA RESULT:    -8.917      0.000      0.000
REMARK INTER + INTRA:         -11.797
REMARK INTER:                 -11.263
REMARK INTRA:                  -0.534
REMARK UNBOUND:                -0.534
REMARK  Name = ZM-241385
REMARK  5 active torsions:
REMARK  status: ('A' for Active; 'I' for Inactive)
REMARK    1  A    between atoms: O_1  and  C_2
REMARK    2  A    between atoms: C_5  and  C_6
REMARK    3  A    between atoms: C_6  and  C_7
REMARK    4  A    between atoms: C_7  and  N_8
REMARK    5  A    between atoms: C_13  and  C_14
REMARK                            x       y       z     vdW  Elec       q    Type
REMARK                         _______ _______ _______ _____ _____    ______ ____
ROOT
ATOM      1  N   UNL A   1      -8.166  -8.215  52.638  0.00  0.00    -0.313 N
ATOM      2  C   UNL A   1      -8.523  -8.005  53.942  0.00  0.00    +0.221 A
ATOM      3  N   UNL A   1      -9.037  -8.967  54.663  0.00  0.00    -0.177 NA
ATOM      4  C   UNL A   1      -9.408  -8.657  55.929  0.00  0.00    +0.259 A
ATOM      5  N   UNL A   1      -9.930  -9.371  56.905  0.00  0.00    -0.186 NA
ATOM      6  C   UNL A   1     -10.166  -8.440  57.901  0.00  0.00    +0.219 A
ATOM      7  N   UNL A   1      -9.795  -7.186  57.598  0.00  0.00    -0.138 NA
ATOM      8  N   UNL A   1      -9.273  -7.381  56.376  0.00  0.00    -0.164 N
ATOM      9  C   UNL A   1      -8.688  -6.396  55.594  0.00  0.00    +0.220 A
ATOM     10  N   UNL A   1      -8.534  -5.141  56.119  0.00  0.00    -0.327 N
ATOM     11  N   UNL A   1      -8.320  -6.712  54.388  0.00  0.00    -0.181 NA
ATOM     12  H   UNL A   1      -7.431  -7.689  52.249  0.00  0.00    +0.000 HD
ATOM     13  H   UNL A   1      -8.831  -4.953  57.040  0.00  0.00    +0.000 HD
ATOM     14  H   UNL A   1      -8.129  -4.426  55.577  0.00  0.00    +0.000 HD
ENDROOT
BRANCH   6  15
ATOM     15  C   UNL A   1     -10.806  -8.778  59.207  0.00  0.00    +0.173 A
ATOM     16  C   UNL A   1     -12.034  -9.387  59.386  0.00  0.00    -0.013 A
ATOM     17  C   UNL A   1     -12.237  -9.497  60.785  0.00  0.00    -0.023 A
ATOM     18  C   UNL A   1     -11.129  -8.940  61.376  0.00  0.00    +0.093 A
ATOM     19  O   UNL A   1     -10.248  -8.522  60.432  0.00  0.00    -0.460 OA
ENDBRANCH   6  15
BRANCH   1  20
ATOM     20  C   UNL A   1      -8.851  -9.201  51.817  0.00  0.00    +0.016 C
BRANCH  20  21
ATOM     21  C   UNL A   1      -7.876 -10.041  50.977  0.00  0.00    -0.012 C
BRANCH  21  25
ATOM     22  C   UNL A   1      -6.747 -13.928  52.477  0.00  0.00    +0.117 A
ATOM     23  C   UNL A   1      -7.157 -13.808  51.155  0.00  0.00    -0.020 A
ATOM     24  C   UNL A   1      -7.534 -12.557  50.658  0.00  0.00    -0.055 A
ATOM     25  C   UNL A   1      -7.517 -11.422  51.481  0.00  0.00    -0.046 A
ATOM     26  C   UNL A   1      -7.078 -11.566  52.809  0.00  0.00    -0.055 A
ATOM     27  C   UNL A   1      -6.701 -12.817  53.307  0.00  0.00    -0.020 A
BRANCH  22  28
ATOM     28  O   UNL A   1      -6.374 -15.131  52.999  0.00  0.00    -0.507 OA
ATOM     29  H   UNL A   1      -6.995 -15.647  53.476  0.00  0.00    +0.000 HD
ENDBRANCH  22  28
ENDBRANCH  21  25
ENDBRANCH  20  21
ENDBRANCH   1  20
TORSDOF 5
ENDMDL
MODEL 2
REMARK VINA RESULT:    -8.849      2.425      3.730
REMARK INTER + INTRA:         -11.712
REMARK INTER:                 -11.330
REMARK INTRA:                  -0.382
REMARK UNBOUND:                -0.534
REMARK  Name = ZM-241385
REMARK  5 active torsions:
REMARK  status: ('A' for Active; 'I' for Inactive)
REMARK    1  A    between atoms: O_1  and  C_2
REMARK    2  A    between atoms: C_5  and  C_6
REMARK    3  A    between atoms: C_6  and  C_7
REMARK    4  A    between atoms: C_7  and  N_8
REMARK    5  A    between atoms: C_13  and  C_14
REMARK                            x       y       z     vdW  Elec       q    Type
REMARK                         _______ _______ _______ _____ _____    ______ ____
ROOT
ATOM      1  N   UNL A   1      -9.574 -11.571  55.199  0.00  0.00    -0.313 N
ATOM      2  C   UNL A   1      -9.811 -11.145  56.478  0.00  0.00    +0.221 A
ATOM      3  N   UNL A   1      -9.802  -9.872  56.775  0.00  0.00    -0.177 NA
ATOM      4  C   UNL A   1      -9.997  -9.543  58.075  0.00  0.00    +0.259 A
ATOM      5  N   UNL A   1     -10.063  -8.386  58.702  0.00  0.00    -0.186 NA
ATOM      6  C   UNL A   1     -10.175  -8.741  60.034  0.00  0.00    +0.219 A
ATOM      7  N   UNL A   1     -10.205 -10.064  60.263  0.00  0.00    -0.138 NA
ATOM      8  N   UNL A   1     -10.149 -10.524  59.003  0.00  0.00    -0.164 N
ATOM      9  C   UNL A   1     -10.190 -11.863  58.642  0.00  0.00    +0.220 A
ATOM     10  N   UNL A   1     -10.395 -12.803  59.616  0.00  0.00    -0.327 N
ATOM     11  N   UNL A   1     -10.020 -12.163  57.389  0.00  0.00    -0.181 NA
ATOM     12  H   UNL A   1      -9.983 -12.410  54.887  0.00  0.00    +0.000 HD
ATOM     13  H   UNL A   1     -10.518 -12.522  60.552  0.00  0.00    +0.000 HD
ATOM     14  H   UNL A   1     -10.419 -13.759  59.382  0.00  0.00    +0.000 HD
ENDROOT
BRANCH   6  15
ATOM     15  C   UNL A   1     -10.235  -7.748  61.148  0.00  0.00    +0.173 A
ATOM     16  C   UNL A   1     -11.161  -6.731  61.291  0.00  0.00    -0.013 A
ATOM     17  C   UNL A   1     -10.825  -6.036  62.481  0.00  0.00    -0.023 A
ATOM     18  C   UNL A   1      -9.710  -6.660  62.984  0.00  0.00    +0.093 A
ATOM     19  O   UNL A   1      -9.357  -7.709  62.199  0.00  0.00    -0.460 OA
ENDBRANCH   6  15
BRANCH   1  20
ATOM     20  C   UNL A   1      -8.731 -10.807  54.292  0.00  0.00    +0.016 C
BRANCH  20  21
ATOM     21  C   UNL A   1      -9.011 -11.135  52.817  0.00  0.00    -0.012 C
BRANCH  21  25
ATOM     22  C   UNL A   1      -6.660 -14.176  50.852  0.00  0.00    +0.117 A
ATOM     23  C   UNL A   1      -6.457 -13.936  52.206  0.00  0.00    -0.020 A
ATOM     24  C   UNL A   1      -7.205 -12.948  52.853  0.00  0.00    -0.055 A
ATOM     25  C   UNL A   1      -8.149 -12.185  52.151  0.00  0.00    -0.046 A
ATOM     26  C   UNL A   1      -8.350 -12.462  50.787  0.00  0.00    -0.055 A
ATOM     27  C   UNL A   1      -7.602 -13.449  50.139  0.00  0.00    -0.020 A
BRANCH  22  28
ATOM     28  O   UNL A   1      -5.947 -15.128  50.186  0.00  0.00    -0.507 OA
ATOM     29  H   UNL A   1      -5.922 -15.124  49.249  0.00  0.00    +0.000 HD
ENDBRANCH  22  28
ENDBRANCH  21  25
ENDBRANCH  20  21
ENDBRANCH   1  20
TORSDOF 5
ENDMDL
MODEL 3
REMARK VINA RESULT:    -8.691      3.359      4.867
REMARK INTER + INTRA:         -11.511
REMARK INTER:                 -10.908
REMARK INTRA:                  -0.603
REMARK UNBOUND:                -0.534
REMARK  Name = ZM-241385
REMARK  5 active torsions:
REMARK  status: ('A' for Active; 'I' for Inactive)
REMARK    1  A    between atoms: O_1  and  C_2
REMARK    2  A    between atoms: C_5  and  C_6
REMARK    3  A    between atoms: C_6  and  C_7
REMARK    4  A    between atoms: C_7  and  N_8
REMARK    5  A    between atoms: C_13  and  C_14
REMARK                            x       y       z     vdW  Elec       q    Type
REMARK                         _______ _______ _______ _____ _____    ______ ____
ROOT
ATOM      1  N   UNL A   1     -10.070 -12.482  55.195  0.00  0.00    -0.313 N
ATOM      2  C   UNL A   1     -10.004 -11.941  56.451  0.00  0.00    +0.221 A
ATOM      3  N   UNL A   1     -10.456 -10.737  56.689  0.00  0.00    -0.177 NA
ATOM      4  C   UNL A   1     -10.306 -10.262  57.949  0.00  0.00    +0.259 A
ATOM      5  N   UNL A   1     -10.653  -9.127  58.521  0.00  0.00    -0.186 NA
ATOM      6  C   UNL A   1     -10.120  -9.227  59.794  0.00  0.00    +0.219 A
ATOM      7  N   UNL A   1      -9.479 -10.379  60.047  0.00  0.00    -0.138 NA
ATOM      8  N   UNL A   1      -9.671 -11.018  58.883  0.00  0.00    -0.164 N
ATOM      9  C   UNL A   1      -9.239 -12.307  58.601  0.00  0.00    +0.220 A
ATOM     10  N   UNL A   1      -8.650 -13.038  59.598  0.00  0.00    -0.327 N
ATOM     11  N   UNL A   1      -9.406 -12.756  57.394  0.00  0.00    -0.181 NA
ATOM     12  H   UNL A   1     -10.145 -13.458  55.095  0.00  0.00    +0.000 HD
ATOM     13  H   UNL A   1      -8.547 -12.649  60.497  0.00  0.00    +0.000 HD
ATOM     14  H   UNL A   1      -8.329 -13.951  59.416  0.00  0.00    +0.000 HD
ENDROOT
BRANCH   6  15
ATOM     15  C   UNL A   1     -10.218  -8.140  60.813  0.00  0.00    +0.173 A
ATOM     16  C   UNL A   1      -9.428  -7.997  61.939  0.00  0.00    -0.013 A
ATOM     17  C   UNL A   1      -9.886  -6.837  62.616  0.00  0.00    -0.023 A
ATOM     18  C   UNL A   1     -10.932  -6.349  61.871  0.00  0.00    +0.093 A
ATOM     19  O   UNL A   1     -11.128  -7.115  60.768  0.00  0.00    -0.460 OA
ENDBRANCH   6  15
BRANCH   1  20
ATOM     20  C   UNL A   1     -10.030 -11.643  54.008  0.00  0.00    +0.016 C
BRANCH  20  21
ATOM     21  C   UNL A   1      -8.600 -11.211  53.645  0.00  0.00    -0.012 C
BRANCH  21  25
ATOM     22  C   UNL A   1      -7.949  -6.963  53.237  0.00  0.00    +0.117 A
ATOM     23  C   UNL A   1      -7.466  -7.817  52.253  0.00  0.00    -0.020 A
ATOM     24  C   UNL A   1      -7.663  -9.196  52.377  0.00  0.00    -0.055 A
ATOM     25  C   UNL A   1      -8.328  -9.730  53.489  0.00  0.00    -0.046 A
ATOM     26  C   UNL A   1      -8.825  -8.843  54.460  0.00  0.00    -0.055 A
ATOM     27  C   UNL A   1      -8.629  -7.464  54.337  0.00  0.00    -0.020 A
BRANCH  22  28
ATOM     28  O   UNL A   1      -7.775  -5.613  53.153  0.00  0.00    -0.507 OA
ATOM     29  H   UNL A   1      -8.519  -5.049  53.083  0.00  0.00    +0.000 HD
ENDBRANCH  22  28
ENDBRANCH  21  25
ENDBRANCH  20  21
ENDBRANCH   1  20
TORSDOF 5
ENDMDL
MODEL 4
REMARK VINA RESULT:    -8.580      1.974      7.110
REMARK INTER + INTRA:         -11.372
REMARK INTER:                 -10.999
REMARK INTRA:                  -0.373
REMARK UNBOUND:                -0.534
REMARK  Name = ZM-241385
REMARK  5 active torsions:
REMARK  status: ('A' for Active; 'I' for Inactive)
REMARK    1  A    between atoms: O_1  and  C_2
REMARK    2  A    between atoms: C_5  and  C_6
REMARK    3  A    between atoms: C_6  and  C_7
REMARK    4  A    between atoms: C_7  and  N_8
REMARK    5  A    between atoms: C_13  and  C_14
REMARK                            x       y       z     vdW  Elec       q    Type
REMARK                         _______ _______ _______ _____ _____    ______ ____
ROOT
ATOM      1  N   UNL A   1      -9.168  -6.595  55.968  0.00  0.00    -0.313 N
ATOM      2  C   UNL A   1      -8.777  -7.383  54.919  0.00  0.00    +0.221 A
ATOM      3  N   UNL A   1      -8.926  -8.681  54.961  0.00  0.00    -0.177 NA
ATOM      4  C   UNL A   1      -8.466  -9.388  53.900  0.00  0.00    +0.259 A
ATOM      5  N   UNL A   1      -8.469 -10.674  53.617  0.00  0.00    -0.186 NA
ATOM      6  C   UNL A   1      -7.755 -10.751  52.435  0.00  0.00    +0.219 A
ATOM      7  N   UNL A   1      -7.328  -9.570  51.958  0.00  0.00    -0.138 NA
ATOM      8  N   UNL A   1      -7.845  -8.742  52.879  0.00  0.00    -0.164 N
ATOM      9  C   UNL A   1      -7.741  -7.358  52.854  0.00  0.00    +0.220 A
ATOM     10  N   UNL A   1      -7.149  -6.761  51.772  0.00  0.00    -0.327 N
ATOM     11  N   UNL A   1      -8.203  -6.692  53.868  0.00  0.00    -0.181 NA
ATOM     12  H   UNL A   1      -9.457  -5.671  55.794  0.00  0.00    +0.000 HD
ATOM     13  H   UNL A   1      -6.814  -7.313  51.028  0.00  0.00    +0.000 HD
ATOM     14  H   UNL A   1      -7.057  -5.781  51.739  0.00  0.00    +0.000 HD
ENDROOT
BRANCH   6  15
ATOM     15  C   UNL A   1      -7.451 -12.037  51.740  0.00  0.00    +0.173 A
ATOM     16  C   UNL A   1      -6.570 -13.013  52.168  0.00  0.00    -0.013 A
ATOM     17  C   UNL A   1      -6.594 -14.043  51.193  0.00  0.00    -0.023 A
ATOM     18  C   UNL A   1      -7.476 -13.630  50.224  0.00  0.00    +0.093 A
ATOM     19  O   UNL A   1      -8.016 -12.430  50.555  0.00  0.00    -0.460 OA
ENDBRANCH   6  15
BRANCH   1  20
ATOM     20  C   UNL A   1      -9.165  -7.098  57.333  0.00  0.00    +0.016 C
BRANCH  20  21
ATOM     21  C   UNL A   1     -10.465  -7.837  57.686  0.00  0.00    -0.012 C
BRANCH  21  25
ATOM     22  C   UNL A   1     -10.032 -11.896  59.091  0.00  0.00    +0.117 A
ATOM     23  C   UNL A   1     -10.541 -11.674  57.816  0.00  0.00    -0.020 A
ATOM     24  C   UNL A   1     -10.695 -10.364  57.352  0.00  0.00    -0.055 A
ATOM     25  C   UNL A   1     -10.356  -9.270  58.161  0.00  0.00    -0.046 A
ATOM     26  C   UNL A   1      -9.824  -9.523  59.438  0.00  0.00    -0.055 A
ATOM     27  C   UNL A   1      -9.670 -10.832  59.903  0.00  0.00    -0.020 A
BRANCH  22  28
ATOM     28  O   UNL A   1      -9.871 -13.159  59.581  0.00  0.00    -0.507 OA
ATOM     29  H   UNL A   1      -9.985 -13.898  59.016  0.00  0.00    +0.000 HD
ENDBRANCH  22  28
ENDBRANCH  21  25
ENDBRANCH  20  21
ENDBRANCH   1  20
TORSDOF 5
ENDMDL
MODEL 5
REMARK VINA RESULT:    -8.413      3.395      5.407
REMARK INTER + INTRA:         -11.161
REMARK INTER:                 -10.746
REMARK INTRA:                  -0.415
REMARK UNBOUND:                -0.534
REMARK  Name = ZM-241385
REMARK  5 active torsions:
REMARK  status: ('A' for Active; 'I' for Inactive)
REMARK    1  A    between atoms: O_1  and  C_2
REMARK    2  A    between atoms: C_5  and  C_6
REMARK    3  A    between atoms: C_6  and  C_7
REMARK    4  A    between atoms: C_7  and  N_8
REMARK    5  A    between atoms: C_13  and  C_14
REMARK                            x       y       z     vdW  Elec       q    Type
REMARK                         _______ _______ _______ _____ _____    ______ ____
ROOT
ATOM      1  N   UNL A   1      -9.910  -8.422  56.769  0.00  0.00    -0.313 N
ATOM      2  C   UNL A   1     -10.080  -8.172  58.104  0.00  0.00    +0.221 A
ATOM      3  N   UNL A   1     -11.010  -7.355  58.523  0.00  0.00    -0.177 NA
ATOM      4  C   UNL A   1     -11.074  -7.128  59.857  0.00  0.00    +0.259 A
ATOM      5  N   UNL A   1     -11.878  -6.393  60.599  0.00  0.00    -0.186 NA
ATOM      6  C   UNL A   1     -11.347  -6.510  61.871  0.00  0.00    +0.219 A
ATOM      7  N   UNL A   1     -10.266  -7.301  61.958  0.00  0.00    -0.138 NA
ATOM      8  N   UNL A   1     -10.167  -7.710  60.684  0.00  0.00    -0.164 N
ATOM      9  C   UNL A   1      -9.217  -8.602  60.205  0.00  0.00    +0.220 A
ATOM     10  N   UNL A   1      -8.362  -9.196  61.095  0.00  0.00    -0.327 N
ATOM     11  N   UNL A   1      -9.179  -8.825  58.926  0.00  0.00    -0.181 NA
ATOM     12  H   UNL A   1      -9.553  -9.293  56.483  0.00  0.00    +0.000 HD
ATOM     13  H   UNL A   1      -8.433  -8.992  62.056  0.00  0.00    +0.000 HD
ATOM     14  H   UNL A   1      -7.676  -9.825  60.774  0.00  0.00    +0.000 HD
ENDROOT
BRANCH   6  15
ATOM     15  C   UNL A   1     -11.903  -5.802  63.062  0.00  0.00    +0.173 A
ATOM     16  C   UNL A   1     -11.176  -5.202  64.074  0.00  0.00    -0.013 A
ATOM     17  C   UNL A   1     -12.116  -4.670  64.993  0.00  0.00    -0.023 A
ATOM     18  C   UNL A   1     -13.356  -4.987  64.496  0.00  0.00    +0.093 A
ATOM     19  O   UNL A   1     -13.241  -5.651  63.319  0.00  0.00    -0.460 OA
ENDBRANCH   6  15
BRANCH   1  20
ATOM     20  C   UNL A   1     -10.249  -7.425  55.765  0.00  0.00    +0.016 C
BRANCH  20  21
ATOM     21  C   UNL A   1      -9.028  -6.601  55.325  0.00  0.00    -0.012 C
BRANCH  21  25
ATOM     22  C   UNL A   1      -7.057  -7.664  51.635  0.00  0.00    +0.117 A
ATOM     23  C   UNL A   1      -7.714  -8.653  52.358  0.00  0.00    -0.020 A
ATOM     24  C   UNL A   1      -8.349  -8.324  53.559  0.00  0.00    -0.055 A
ATOM     25  C   UNL A   1      -8.320  -7.012  54.053  0.00  0.00    -0.046 A
ATOM     26  C   UNL A   1      -7.667  -6.027  53.291  0.00  0.00    -0.055 A
ATOM     27  C   UNL A   1      -7.031  -6.354  52.090  0.00  0.00    -0.020 A
BRANCH  22  28
ATOM     28  O   UNL A   1      -6.423  -7.946  50.461  0.00  0.00    -0.507 OA
ATOM     29  H   UNL A   1      -5.490  -7.881  50.405  0.00  0.00    +0.000 HD
ENDBRANCH  22  28
ENDBRANCH  21  25
ENDBRANCH  20  21
ENDBRANCH   1  20
TORSDOF 5
ENDMDL
MODEL 6
REMARK VINA RESULT:    -8.236      3.166      8.841
REMARK INTER + INTRA:         -10.937
REMARK INTER:                 -10.551
REMARK INTRA:                  -0.386
REMARK UNBOUND:                -0.534
REMARK  Name = ZM-241385
REMARK  5 active torsions:
REMARK  status: ('A' for Active; 'I' for Inactive)
REMARK    1  A    between atoms: O_1  and  C_2
REMARK    2  A    between atoms: C_5  and  C_6
REMARK    3  A    between atoms: C_6  and  C_7
REMARK    4  A    between atoms: C_7  and  N_8
REMARK    5  A    between atoms: C_13  and  C_14
REMARK                            x       y       z     vdW  Elec       q    Type
REMARK                         _______ _______ _______ _____ _____    ______ ____
ROOT
ATOM      1  N   UNL A   1     -10.378 -12.357  58.237  0.00  0.00    -0.313 N
ATOM      2  C   UNL A   1     -10.171 -12.183  56.896  0.00  0.00    +0.221 A
ATOM      3  N   UNL A   1      -9.276 -11.337  56.457  0.00  0.00    -0.177 NA
ATOM      4  C   UNL A   1      -9.172 -11.193  55.114  0.00  0.00    +0.259 A
ATOM      5  N   UNL A   1      -8.386 -10.457  54.354  0.00  0.00    -0.186 NA
ATOM      6  C   UNL A   1      -8.858 -10.689  53.075  0.00  0.00    +0.219 A
ATOM      7  N   UNL A   1      -9.885 -11.550  53.001  0.00  0.00    -0.138 NA
ATOM      8  N   UNL A   1     -10.009 -11.882  54.295  0.00  0.00    -0.164 N
ATOM      9  C   UNL A   1     -10.922 -12.799  54.798  0.00  0.00    +0.220 A
ATOM     10  N   UNL A   1     -11.704 -13.501  53.920  0.00  0.00    -0.327 N
ATOM     11  N   UNL A   1     -10.997 -12.942  56.087  0.00  0.00    -0.181 NA
ATOM     12  H   UNL A   1     -10.693 -13.229  58.567  0.00  0.00    +0.000 HD
ATOM     13  H   UNL A   1     -11.607 -13.355  52.950  0.00  0.00    +0.000 HD
ATOM     14  H   UNL A   1     -12.363 -14.150  54.257  0.00  0.00    +0.000 HD
ENDROOT
BRANCH   6  15
ATOM     15  C   UNL A   1      -8.298 -10.024  51.860  0.00  0.00    +0.173 A
ATOM     16  C   UNL A   1      -8.755 -10.167  50.563  0.00  0.00    -0.013 A
ATOM     17  C   UNL A   1      -7.919  -9.365  49.744  0.00  0.00    -0.023 A
ATOM     18  C   UNL A   1      -6.997  -8.792  50.585  0.00  0.00    +0.093 A
ATOM     19  O   UNL A   1      -7.230  -9.166  51.869  0.00  0.00    -0.460 OA
ENDBRANCH   6  15
BRANCH   1  20
ATOM     20  C   UNL A   1     -10.140 -11.279  59.184  0.00  0.00    +0.016 C
BRANCH  20  21
ATOM     21  C   UNL A   1     -11.198 -10.169  59.084  0.00  0.00    -0.012 C
BRANCH  21  25
ATOM     22  C   UNL A   1     -10.786  -6.658  61.561  0.00  0.00    +0.117 A
ATOM     23  C   UNL A   1      -9.914  -7.724  61.750  0.00  0.00    -0.020 A
ATOM     24  C   UNL A   1     -10.042  -8.870  60.961  0.00  0.00    -0.055 A
ATOM     25  C   UNL A   1     -11.048  -8.966  59.989  0.00  0.00    -0.046 A
ATOM     26  C   UNL A   1     -11.904  -7.866  59.803  0.00  0.00    -0.055 A
ATOM     27  C   UNL A   1     -11.777  -6.719  60.592  0.00  0.00    -0.020 A
BRANCH  22  28
ATOM     28  O   UNL A   1     -10.695  -5.524  62.313  0.00  0.00    -0.507 OA
ATOM     29  H   UNL A   1     -10.791  -5.571  63.243  0.00  0.00    +0.000 HD
ENDBRANCH  22  28
ENDBRANCH  21  25
ENDBRANCH  20  21
ENDBRANCH   1  20
TORSDOF 5
ENDMDL
MODEL 7
REMARK VINA RESULT:    -8.234      2.114      3.017
REMARK INTER + INTRA:         -10.934
REMARK INTER:                 -10.568
REMARK INTRA:                  -0.366
REMARK UNBOUND:                -0.534
REMARK  Name = ZM-241385
REMARK  5 active torsions:
REMARK  status: ('A' for Active; 'I' for Inactive)
REMARK    1  A    between atoms: O_1  and  C_2
REMARK    2  A    between atoms: C_5  and  C_6
REMARK    3  A    between atoms: C_6  and  C_7
REMARK    4  A    between atoms: C_7  and  N_8
REMARK    5  A    between atoms: C_13  and  C_14
REMARK                            x       y       z     vdW  Elec       q    Type
REMARK                         _______ _______ _______ _____ _____    ______ ____
ROOT
ATOM      1  N   UNL A   1      -9.059 -10.392  54.881  0.00  0.00    -0.313 N
ATOM      2  C   UNL A   1      -9.435 -10.140  56.172  0.00  0.00    +0.221 A
ATOM      3  N   UNL A   1      -9.662 -11.119  57.009  0.00  0.00    -0.177 NA
ATOM      4  C   UNL A   1     -10.078 -10.779  58.254  0.00  0.00    +0.259 A
ATOM      5  N   UNL A   1     -10.374 -11.494  59.320  0.00  0.00    -0.186 NA
ATOM      6  C   UNL A   1     -10.830 -10.554  60.227  0.00  0.00    +0.219 A
ATOM      7  N   UNL A   1     -10.809  -9.287  59.783  0.00  0.00    -0.138 NA
ATOM      8  N   UNL A   1     -10.277  -9.472  58.564  0.00  0.00    -0.164 N
ATOM      9  C   UNL A   1      -9.988  -8.460  57.660  0.00  0.00    +0.220 A
ATOM     10  N   UNL A   1     -10.162  -7.158  58.048  0.00  0.00    -0.327 N
ATOM     11  N   UNL A   1      -9.572  -8.798  56.476  0.00  0.00    -0.181 NA
ATOM     12  H   UNL A   1      -8.497  -9.738  54.407  0.00  0.00    +0.000 HD
ATOM     13  H   UNL A   1     -10.480  -6.955  58.958  0.00  0.00    +0.000 HD
ATOM     14  H   UNL A   1      -9.971  -6.426  57.419  0.00  0.00    +0.000 HD
ENDROOT
BRANCH   6  15
ATOM     15  C   UNL A   1     -11.332 -10.902  61.590  0.00  0.00    +0.173 A
ATOM     16  C   UNL A   1     -12.111 -11.995  61.922  0.00  0.00    -0.013 A
ATOM     17  C   UNL A   1     -12.356 -11.915  63.316  0.00  0.00    -0.023 A
ATOM     18  C   UNL A   1     -11.725 -10.774  63.749  0.00  0.00    +0.093 A
ATOM     19  O   UNL A   1     -11.084 -10.166  62.719  0.00  0.00    -0.460 OA
ENDBRANCH   6  15
BRANCH   1  20
ATOM     20  C   UNL A   1      -9.474 -11.606  54.195  0.00  0.00    +0.016 C
BRANCH  20  21
ATOM     21  C   UNL A   1      -9.311 -11.501  52.671  0.00  0.00    -0.012 C
BRANCH  21  25
ATOM     22  C   UNL A   1      -6.593 -14.203  50.685  0.00  0.00    +0.117 A
ATOM     23  C   UNL A   1      -6.497 -14.040  52.062  0.00  0.00    -0.020 A
ATOM     24  C   UNL A   1      -7.365 -13.162  52.717  0.00  0.00    -0.055 A
ATOM     25  C   UNL A   1      -8.323 -12.431  52.000  0.00  0.00    -0.046 A
ATOM     26  C   UNL A   1      -8.414 -12.630  50.611  0.00  0.00    -0.055 A
ATOM     27  C   UNL A   1      -7.546 -13.507  49.956  0.00  0.00    -0.020 A
BRANCH  22  28
ATOM     28  O   UNL A   1      -5.762 -15.048  50.010  0.00  0.00    -0.507 OA
ATOM     29  H   UNL A   1      -5.186 -15.614  50.484  0.00  0.00    +0.000 HD
ENDBRANCH  22  28
ENDBRANCH  21  25
ENDBRANCH  20  21
ENDBRANCH   1  20
TORSDOF 5
ENDMDL
MODEL 8
REMARK VINA RESULT:    -8.197      3.686      5.574
REMARK INTER + INTRA:         -10.887
REMARK INTER:                 -10.410
REMARK INTRA:                  -0.477
REMARK UNBOUND:                -0.534
REMARK  Name = ZM-241385
REMARK  5 active torsions:
REMARK  status: ('A' for Active; 'I' for Inactive)
REMARK    1  A    between atoms: O_1  and  C_2
REMARK    2  A    between atoms: C_5  and  C_6
REMARK    3  A    between atoms: C_6  and  C_7
REMARK    4  A    between atoms: C_7  and  N_8
REMARK    5  A    between atoms: C_13  and  C_14
REMARK                            x       y       z     vdW  Elec       q    Type
REMARK                         _______ _______ _______ _____ _____    ______ ____
ROOT
ATOM      1  N   UNL A   1      -9.570 -12.068  56.128  0.00  0.00    -0.313 N
ATOM      2  C   UNL A   1      -9.765 -11.635  57.411  0.00  0.00    +0.221 A
ATOM      3  N   UNL A   1      -9.377 -10.444  57.785  0.00  0.00    -0.177 NA
ATOM      4  C   UNL A   1      -9.565 -10.117  59.087  0.00  0.00    +0.259 A
ATOM      5  N   UNL A   1      -9.311  -9.023  59.776  0.00  0.00    -0.186 NA
ATOM      6  C   UNL A   1      -9.641  -9.372  61.074  0.00  0.00    +0.219 A
ATOM      7  N   UNL A   1     -10.108 -10.622  61.219  0.00  0.00    -0.138 NA
ATOM      8  N   UNL A   1     -10.096 -11.030  59.941  0.00  0.00    -0.164 N
ATOM      9  C   UNL A   1     -10.531 -12.271  59.497  0.00  0.00    +0.220 A
ATOM     10  N   UNL A   1     -11.104 -13.130  60.397  0.00  0.00    -0.327 N
ATOM     11  N   UNL A   1     -10.362 -12.565  58.243  0.00  0.00    -0.181 NA
ATOM     12  H   UNL A   1     -10.197 -12.720  55.739  0.00  0.00    +0.000 HD
ATOM     13  H   UNL A   1     -11.209 -12.858  61.338  0.00  0.00    +0.000 HD
ATOM     14  H   UNL A   1     -11.411 -14.018  60.104  0.00  0.00    +0.000 HD
ENDROOT
BRANCH   6  15
ATOM     15  C   UNL A   1      -9.474  -8.452  62.239  0.00  0.00    +0.173 A
ATOM     16  C   UNL A   1      -9.159  -8.818  63.535  0.00  0.00    -0.013 A
ATOM     17  C   UNL A   1      -9.119  -7.625  64.299  0.00  0.00    -0.023 A
ATOM     18  C   UNL A   1      -9.423  -6.605  63.430  0.00  0.00    +0.093 A
ATOM     19  O   UNL A   1      -9.618  -7.091  62.178  0.00  0.00    -0.460 OA
ENDBRANCH   6  15
BRANCH   1  20
ATOM     20  C   UNL A   1      -8.455 -11.585  55.328  0.00  0.00    +0.016 C
BRANCH  20  21
ATOM     21  C   UNL A   1      -8.921 -10.803  54.089  0.00  0.00    -0.012 C
BRANCH  21  25
ATOM     22  C   UNL A   1      -8.296  -6.532  54.063  0.00  0.00    +0.117 A
ATOM     23  C   UNL A   1      -8.931  -7.114  55.154  0.00  0.00    -0.020 A
ATOM     24  C   UNL A   1      -9.147  -8.495  55.171  0.00  0.00    -0.055 A
ATOM     25  C   UNL A   1      -8.745  -9.300  54.096  0.00  0.00    -0.046 A
ATOM     26  C   UNL A   1      -8.086  -8.689  53.015  0.00  0.00    -0.055 A
ATOM     27  C   UNL A   1      -7.869  -7.308  52.996  0.00  0.00    -0.020 A
BRANCH  22  28
ATOM     28  O   UNL A   1      -8.069  -5.188  54.007  0.00  0.00    -0.507 OA
ATOM     29  H   UNL A   1      -8.260  -4.650  54.750  0.00  0.00    +0.000 HD
ENDBRANCH  22  28
ENDBRANCH  21  25
ENDBRANCH  20  21
ENDBRANCH   1  20
TORSDOF 5
ENDMDL
MODEL 9
REMARK VINA RESULT:    -8.122      3.265      5.136
REMARK INTER + INTRA:         -10.793
REMARK INTER:                 -10.455
REMARK INTRA:                  -0.338
REMARK UNBOUND:                -0.534
REMARK  Name = ZM-241385
REMARK  5 active torsions:
REMARK  status: ('A' for Active; 'I' for Inactive)
REMARK    1  A    between atoms: O_1  and  C_2
REMARK    2  A    between atoms: C_5  and  C_6
REMARK    3  A    between atoms: C_6  and  C_7
REMARK    4  A    between atoms: C_7  and  N_8
REMARK    5  A    between atoms: C_13  and  C_14
REMARK                            x       y       z     vdW  Elec       q    Type
REMARK                         _______ _______ _______ _____ _____    ______ ____
ROOT
ATOM      1  N   UNL A   1     -10.005  -9.825  56.259  0.00  0.00    -0.313 N
ATOM      2  C   UNL A   1     -10.408  -9.501  57.526  0.00  0.00    +0.221 A
ATOM      3  N   UNL A   1     -10.510  -8.253  57.901  0.00  0.00    -0.177 NA
ATOM      4  C   UNL A   1     -10.869  -8.025  59.188  0.00  0.00    +0.259 A
ATOM      5  N   UNL A   1     -11.075  -6.919  59.874  0.00  0.00    -0.186 NA
ATOM      6  C   UNL A   1     -11.313  -7.371  61.159  0.00  0.00    +0.219 A
ATOM      7  N   UNL A   1     -11.288  -8.706  61.300  0.00  0.00    -0.138 NA
ATOM      8  N   UNL A   1     -11.063  -9.075  60.029  0.00  0.00    -0.164 N
ATOM      9  C   UNL A   1     -10.982 -10.386  59.583  0.00  0.00    +0.220 A
ATOM     10  N   UNL A   1     -11.237 -11.401  60.467  0.00  0.00    -0.327 N
ATOM     11  N   UNL A   1     -10.656 -10.590  58.342  0.00  0.00    -0.181 NA
ATOM     12  H   UNL A   1     -10.324 -10.661  55.850  0.00  0.00    +0.000 HD
ATOM     13  H   UNL A   1     -11.481 -11.192  61.398  0.00  0.00    +0.000 HD
ATOM     14  H   UNL A   1     -11.176 -12.338  60.172  0.00  0.00    +0.000 HD
ENDROOT
BRANCH   6  15
ATOM     15  C   UNL A   1     -11.558  -6.461  62.318  0.00  0.00    +0.173 A
ATOM     16  C   UNL A   1     -12.780  -6.188  62.903  0.00  0.00    -0.013 A
ATOM     17  C   UNL A   1     -12.535  -5.267  63.953  0.00  0.00    -0.023 A
ATOM     18  C   UNL A   1     -11.183  -5.024  63.939  0.00  0.00    +0.093 A
ATOM     19  O   UNL A   1     -10.579  -5.757  62.970  0.00  0.00    -0.460 OA
ENDBRANCH   6  15
BRANCH   1  20
ATOM     20  C   UNL A   1      -9.113  -8.957  55.505  0.00  0.00    +0.016 C
BRANCH  20  21
ATOM     21  C   UNL A   1      -8.684  -9.580  54.168  0.00  0.00    -0.012 C
BRANCH  21  25
ATOM     22  C   UNL A   1      -6.669  -7.099  51.266  0.00  0.00    +0.117 A
ATOM     23  C   UNL A   1      -7.274  -6.498  52.364  0.00  0.00    -0.020 A
ATOM     24  C   UNL A   1      -7.937  -7.289  53.306  0.00  0.00    -0.055 A
ATOM     25  C   UNL A   1      -8.013  -8.681  53.152  0.00  0.00    -0.046 A
ATOM     26  C   UNL A   1      -7.375  -9.266  52.044  0.00  0.00    -0.055 A
ATOM     27  C   UNL A   1      -6.712  -8.476  51.101  0.00  0.00    -0.020 A
BRANCH  22  28
ATOM     28  O   UNL A   1      -6.015  -6.362  50.323  0.00  0.00    -0.507 OA
ATOM     29  H   UNL A   1      -5.662  -5.524  50.547  0.00  0.00    +0.000 HD
ENDBRANCH  22  28
ENDBRANCH  21  25
ENDBRANCH  20  21
ENDBRANCH   1  20
TORSDOF 5
ENDMDL
