REMARK  Name = ZM-241385
REMARK  5 active torsions:
REMARK  status: ('A' for Active; 'I' for Inactive)
REMARK    1  A    between atoms: O_1  and  C_2
REMARK    2  A    between atoms: C_5  and  C_6
REMARK    3  A    between atoms: C_6  and  C_7
REMARK    4  A    between atoms: C_7  and  N_8
REMARK    5  A    between atoms: C_13  and  C_14
REMARK                            x       y       z     vdW  Elec       q    Type
REMARK                         _______ _______ _______ _____ _____    ______ ____
ROOT
ATOM      1  N   UNL A   1      -5.597  -1.569  -0.157  0.00  0.00    -0.313 N
ATOM      2  C   UNL A   1      -6.281  -2.754  -0.189  0.00  0.00    +0.221 A
ATOM      3  N   UNL A   1      -5.819  -3.814   0.421  0.00  0.00    -0.177 NA
ATOM      4  C   UNL A   1      -6.536  -4.957   0.296  0.00  0.00    +0.259 A
ATOM      5  N   UNL A   1      -6.370  -6.171   0.780  0.00  0.00    -0.186 NA
ATOM      6  C   UNL A   1      -7.390  -6.899   0.194  0.00  0.00    +0.219 A
ATOM      7  N   UNL A   1      -8.195  -6.190  -0.613  0.00  0.00    -0.138 NA
ATOM      8  N   UNL A   1      -7.656  -4.969  -0.473  0.00  0.00    -0.164 N
ATOM      9  C   UNL A   1      -8.135  -3.813  -1.074  0.00  0.00    +0.220 A
ATOM     10  N   UNL A   1      -9.297  -3.878  -1.796  0.00  0.00    -0.327 N
ATOM     11  N   UNL A   1      -7.448  -2.720  -0.930  0.00  0.00    -0.181 NA
ATOM     12  H   UNL A   1      -6.096  -0.723  -0.218  0.00  0.00    +0.000 HD
ATOM     13  H   UNL A   1      -9.780  -4.733  -1.874  0.00  0.00    +0.000 HD
ATOM     14  H   UNL A   1      -9.649  -3.071  -2.237  0.00  0.00    +0.000 HD
ENDROOT
BRANCH   6  15
ATOM     15  C   UNL A   1      -7.583  -8.364   0.410  0.00  0.00    +0.173 A
ATOM     16  C   UNL A   1      -6.934  -9.148   1.346  0.00  0.00    -0.013 A
ATOM     17  C   UNL A   1      -7.420 -10.470   1.181  0.00  0.00    -0.023 A
ATOM     18  C   UNL A   1      -8.325 -10.417   0.149  0.00  0.00    +0.093 A
ATOM     19  O   UNL A   1      -8.448  -9.146  -0.310  0.00  0.00    -0.460 OA
ENDBRANCH   6  15
BRANCH   1  20
ATOM     20  C   UNL A   1      -4.148  -1.536  -0.035  0.00  0.00    +0.016 C
BRANCH  20  21
ATOM     21  C   UNL A   1      -3.596  -0.102  -0.012  0.00  0.00    -0.012 C
BRANCH  21  25
ATOM     22  C   UNL A   1      -4.660   2.534   3.237  0.00  0.00    +0.117 A
ATOM     23  C   UNL A   1      -4.684   1.160   3.447  0.00  0.00    -0.020 A
ATOM     24  C   UNL A   1      -4.350   0.295   2.401  0.00  0.00    -0.055 A
ATOM     25  C   UNL A   1      -4.005   0.794   1.137  0.00  0.00    -0.046 A
ATOM     26  C   UNL A   1      -3.968   2.188   0.957  0.00  0.00    -0.055 A
ATOM     27  C   UNL A   1      -4.302   3.054   2.002  0.00  0.00    -0.020 A
BRANCH  22  28
ATOM     28  O   UNL A   1      -4.982   3.410   4.231  0.00  0.00    -0.507 OA
ATOM     29  H   UNL A   1      -5.228   3.089   5.076  0.00  0.00    +0.000 HD
ENDBRANCH  22  28
ENDBRANCH  21  25
ENDBRANCH  20  21
ENDBRANCH   1  20
TORSDOF 5
