@<TRIPOS>MOLECULE
ZM-241385
 40 43 0 0 0
SMALL
GASTEIGER

@<TRIPOS>ATOM
      1 O          -4.9816    3.4096    4.2309 O.3     1  UNL1       -0.5068
      2 C          -4.6603    2.5336    3.2369 C.ar    1  UNL1        0.1169
      3 C          -4.6839    1.1602    3.4470 C.ar    1  UNL1       -0.0199
      4 C          -4.3504    0.2949    2.4007 C.ar    1  UNL1       -0.0551
      5 C          -4.0051    0.7938    1.1368 C.ar    1  UNL1       -0.0457
      6 C          -3.5965   -0.1025   -0.0124 C.3     1  UNL1       -0.0120
      7 C          -4.1478   -1.5365   -0.0349 C.3     1  UNL1        0.0158
      8 N          -5.5974   -1.5694   -0.1572 N.pl3   1  UNL1       -0.3130
      9 C          -6.2807   -2.7536   -0.1889 C.ar    1  UNL1        0.2213
     10 N          -5.8195   -3.8141    0.4213 N.ar    1  UNL1       -0.1771
     11 C          -6.5357   -4.9573    0.2963 C.ar    1  UNL1        0.2593
     12 N          -6.3695   -6.1714    0.7804 N.ar    1  UNL1       -0.1861
     13 C          -7.3904   -6.8987    0.1944 C.ar    1  UNL1        0.2189
     14 C          -7.5829   -8.3637    0.4103 C.ar    1  UNL1        0.1734
     15 C          -6.9339   -9.1478    1.3459 C.ar    1  UNL1       -0.0127
     16 C          -7.4196  -10.4697    1.1810 C.ar    1  UNL1       -0.0232
     17 C          -8.3250  -10.4169    0.1489 C.ar    1  UNL1        0.0927
     18 O          -8.4479   -9.1463   -0.3096 O.2     1  UNL1       -0.4597
     19 N          -8.1950   -6.1903   -0.6131 N.ar    1  UNL1       -0.1375
     20 N          -7.6560   -4.9691   -0.4726 N.ar    1  UNL1       -0.1644
     21 C          -8.1346   -3.8127   -1.0743 C.ar    1  UNL1        0.2198
     22 N          -9.2970   -3.8784   -1.7962 N.pl3   1  UNL1       -0.3273
     23 N          -7.4476   -2.7204   -0.9303 N.ar    1  UNL1       -0.1812
     24 C          -3.9682    2.1884    0.9574 C.ar    1  UNL1       -0.0551
     25 C          -4.3016    3.0540    2.0021 C.ar    1  UNL1       -0.0199
     26 H          -5.2301    2.8998    5.0194 H       1  UNL1        0.2921
     27 H          -4.9543    0.7417    4.4111 H       1  UNL1        0.0654
     28 H          -4.3704   -0.7746    2.5946 H       1  UNL1        0.0621
     29 H          -2.5003   -0.1612   -0.0014 H       1  UNL1        0.0328
     30 H          -3.8781    0.3861   -0.9549 H       1  UNL1        0.0328
     31 H          -3.8248   -2.0835    0.8577 H       1  UNL1        0.0465
     32 H          -3.7156   -2.0527   -0.9010 H       1  UNL1        0.0465
     33 H          -5.9968   -0.8814   -0.7850 H       1  UNL1        0.1489
     34 H          -6.2089   -8.7977    2.0682 H       1  UNL1        0.0656
     35 H          -7.1425  -11.3519    1.7408 H       1  UNL1        0.0649
     36 H          -8.9399  -11.1531   -0.3503 H       1  UNL1        0.1029
     37 H          -9.5909   -4.8099   -2.0873 H       1  UNL1        0.1452
     38 H          -9.4593   -3.1327   -2.4597 H       1  UNL1        0.1452
     39 H          -3.6773    2.6140   -0.0008 H       1  UNL1        0.0621
     40 H          -4.2774    4.1297    1.8521 H       1  UNL1        0.0654
@<TRIPOS>BOND
     1     1     2    1
     2     2     3   ar
     3     3     4   ar
     4     4     5   ar
     5     5     6    1
     6     6     7    1
     7     7     8    1
     8     8     9    1
     9     9    10   ar
    10    10    11   ar
    11    11    12   ar
    12    12    13   ar
    13    13    14    1
    14    14    15   ar
    15    15    16   ar
    16    16    17   ar
    17    17    18   ar
    18    14    18   ar
    19    13    19   ar
    20    19    20   ar
    21    11    20   ar
    22    20    21   ar
    23    21    22    1
    24    21    23   ar
    25     9    23   ar
    26     5    24   ar
    27    24    25   ar
    28     2    25   ar
    29     1    26    1
    30     3    27    1
    31     4    28    1
    32     6    29    1
    33     6    30    1
    34     7    31    1
    35     7    32    1
    36     8    33    1
    37    15    34    1
    38    16    35    1
    39    17    36    1
    40    22    37    1
    41    22    38    1
    42    24    39    1
    43    25    40    1
