@<TRIPOS>MOLECULE
Caffeine
 24 25 0 0 0
SMALL
GASTEIGER

@<TRIPOS>ATOM
      1 C          -3.2461   -1.1344    0.0318 C.3     1  UNL1        0.0135
      2 N          -2.2655   -0.0791    0.0049 N.ar    1  UNL1       -0.3277
      3 C          -2.5216    1.2668   -0.0061 C.ar    1  UNL1        0.0986
      4 N          -1.4083    1.9732   -0.0093 N.ar    1  UNL1       -0.2177
      5 C          -0.4144    1.0413   -0.0033 C.ar    1  UNL1        0.1678
      6 C          -0.9084   -0.2278    0.0003 C.ar    1  UNL1        0.1512
      7 C          -0.0849   -1.3851    0.0056 C.ar    1  UNL1        0.2822
      8 O          -0.5417   -2.5246    0.0070 O.2     1  UNL1       -0.2652
      9 N           1.2784   -1.0790    0.0093 N.ar    1  UNL1       -0.2622
     10 C           1.8297    0.2191    0.0066 C.ar    1  UNL1        0.3331
     11 O           3.0528    0.3879    0.0084 O.2     1  UNL1       -0.2462
     12 N           0.9368    1.2916    0.0030 N.ar    1  UNL1       -0.2796
     13 C           1.4267    2.6580    0.0095 C.3     1  UNL1        0.0181
     14 C           2.2244   -2.1772    0.0213 C.3     1  UNL1        0.0196
     15 H          -4.2494   -0.7020    0.0053 H       1  UNL1        0.0456
     16 H          -3.1148   -1.7051    0.9547 H       1  UNL1        0.0456
     17 H          -3.0973   -1.7730   -0.8427 H       1  UNL1        0.0456
     18 H          -3.5247    1.6746   -0.0091 H       1  UNL1        0.1029
     19 H           2.5188    2.6991    0.0368 H       1  UNL1        0.0458
     20 H           1.0376    3.1739    0.8930 H       1  UNL1        0.0458
     21 H           1.0807    3.1666   -0.8958 H       1  UNL1        0.0458
     22 H           1.7348   -3.1541    0.0225 H       1  UNL1        0.0458
     23 H           2.8523   -2.0943    0.9145 H       1  UNL1        0.0458
     24 H           2.8673   -2.1032   -0.8618 H       1  UNL1        0.0458
@<TRIPOS>BOND
     1     1     2    1
     2     2     3   ar
     3     3     4   ar
     4     4     5   ar
     5     5     6   ar
     6     2     6   ar
     7     6     7   ar
     8     7     8    2
     9     7     9   ar
    10     9    10   ar
    11    10    11    2
    12    10    12   ar
    13     5    12   ar
    14    12    13    1
    15     9    14    1
    16     1    15    1
    17     1    16    1
    18     1    17    1
    19     3    18    1
    20    13    19    1
    21    13    20    1
    22    13    21    1
    23    14    22    1
    24    14    23    1
    25    14    24    1
