REMARK  Name = Caffeine
REMARK  3 active torsions:
REMARK  status: ('A' for Active; 'I' for Inactive)
REMARK    1  A    between atoms: C_1  and  N_2
REMARK    2  A    between atoms: N_9  and  C_14
REMARK    3  A    between atoms: N_12  and  C_13
REMARK                            x       y       z     vdW  Elec       q    Type
REMARK                         _______ _______ _______ _____ _____    ______ ____
ROOT
ATOM      1  C   UNL A   1      -3.246  -1.134   0.032  0.00  0.00    +0.013 C
ATOM      2  N   UNL A   1      -2.265  -0.079   0.005  0.00  0.00    -0.328 N
ATOM      3  C   UNL A   1      -2.522   1.267  -0.006  0.00  0.00    +0.099 A
ATOM      4  N   UNL A   1      -1.408   1.973  -0.009  0.00  0.00    -0.218 NA
ATOM      5  C   UNL A   1      -0.414   1.041  -0.003  0.00  0.00    +0.168 A
ATOM      6  C   UNL A   1      -0.908  -0.228   0.000  0.00  0.00    +0.151 A
ATOM      7  C   UNL A   1      -0.085  -1.385   0.006  0.00  0.00    +0.282 A
ATOM      8  O   UNL A   1      -0.542  -2.525   0.007  0.00  0.00    -0.265 OA
ATOM      9  N   UNL A   1       1.278  -1.079   0.009  0.00  0.00    -0.262 N
ATOM     10  C   UNL A   1       1.830   0.219   0.007  0.00  0.00    +0.333 A
ATOM     11  O   UNL A   1       3.053   0.388   0.008  0.00  0.00    -0.246 OA
ATOM     12  N   UNL A   1       0.937   1.292   0.003  0.00  0.00    -0.280 N
ATOM     13  C   UNL A   1       1.427   2.658   0.009  0.00  0.00    +0.018 C
ATOM     14  C   UNL A   1       2.224  -2.177   0.021  0.00  0.00    +0.020 C
ENDROOT
TORSDOF 0
