MODEL 1
REMARK VINA RESULT:    -5.494      0.000      0.000
REMARK INTER + INTRA:          -5.494
REMARK INTER:                  -5.494
REMARK INTRA:                   0.000
REMARK UNBOUND:                 0.000
REMARK  Name = Caffeine
REMARK  3 active torsions:
REMARK  status: ('A' for Active; 'I' for Inactive)
REMARK    1  A    between atoms: C_1  and  N_2
REMARK    2  A    between atoms: N_9  and  C_14
REMARK    3  A    between atoms: N_12  and  C_13
REMARK                            x       y       z     vdW  Elec       q    Type
REMARK                         _______ _______ _______ _____ _____    ______ ____
ROOT
ATOM      1  C   UNL A   1      -9.229 -11.447  54.647  0.00  0.00    +0.013 C
ATOM      2  N   UNL A   1      -8.498 -10.717  53.643  0.00  0.00    -0.328 N
ATOM      3  C   UNL A   1      -7.871 -11.252  52.548  0.00  0.00    +0.099 A
ATOM      4  N   UNL A   1      -7.308 -10.316  51.807  0.00  0.00    -0.218 NA
ATOM      5  C   UNL A   1      -7.587  -9.152  52.458  0.00  0.00    +0.168 A
ATOM      6  C   UNL A   1      -8.311  -9.366  53.592  0.00  0.00    +0.151 A
ATOM      7  C   UNL A   1      -8.734  -8.321  54.455  0.00  0.00    +0.282 A
ATOM      8  O   UNL A   1      -9.385  -8.526  55.476  0.00  0.00    -0.265 OA
ATOM      9  N   UNL A   1      -8.327  -7.059  54.016  0.00  0.00    -0.262 N
ATOM     10  C   UNL A   1      -7.578  -6.795  52.850  0.00  0.00    +0.333 A
ATOM     11  O   UNL A   1      -7.265  -5.640  52.546  0.00  0.00    -0.246 OA
ATOM     12  N   UNL A   1      -7.212  -7.890  52.065  0.00  0.00    -0.280 N
ATOM     13  C   UNL A   1      -6.448  -7.700  50.846  0.00  0.00    +0.018 C
ATOM     14  C   UNL A   1      -8.702  -5.906  54.810  0.00  0.00    +0.020 C
ENDROOT
TORSDOF 0
ENDMDL
MODEL 2
REMARK VINA RESULT:    -5.491      1.731      3.594
REMARK INTER + INTRA:          -5.491
REMARK INTER:                  -5.491
REMARK INTRA:                   0.000
REMARK UNBOUND:                 0.000
REMARK  Name = Caffeine
REMARK  3 active torsions:
REMARK  status: ('A' for Active; 'I' for Inactive)
REMARK    1  A    between atoms: C_1  and  N_2
REMARK    2  A    between atoms: N_9  and  C_14
REMARK    3  A    between atoms: N_12  and  C_13
REMARK                            x       y       z     vdW  Elec       q    Type
REMARK                         _______ _______ _______ _____ _____    ______ ____
ROOT
ATOM      1  C   UNL A   1      -9.608  -7.143  56.366  0.00  0.00    +0.013 C
ATOM      2  N   UNL A   1      -8.938  -7.150  55.091  0.00  0.00    -0.328 N
ATOM      3  C   UNL A   1      -8.519  -6.049  54.389  0.00  0.00    +0.099 A
ATOM      4  N   UNL A   1      -7.919  -6.391  53.265  0.00  0.00    -0.218 NA
ATOM      5  C   UNL A   1      -7.963  -7.753  53.256  0.00  0.00    +0.168 A
ATOM      6  C   UNL A   1      -8.587  -8.248  54.360  0.00  0.00    +0.151 A
ATOM      7  C   UNL A   1      -8.767  -9.637  54.597  0.00  0.00    +0.282 A
ATOM      8  O   UNL A   1      -9.333 -10.072  55.597  0.00  0.00    -0.265 OA
ATOM      9  N   UNL A   1      -8.237 -10.432  53.579  0.00  0.00    -0.262 N
ATOM     10  C   UNL A   1      -7.583  -9.960  52.421  0.00  0.00    +0.333 A
ATOM     11  O   UNL A   1      -7.149 -10.745  51.574  0.00  0.00    -0.246 OA
ATOM     12  N   UNL A   1      -7.454  -8.577  52.281  0.00  0.00    -0.280 N
ATOM     13  C   UNL A   1      -6.787  -8.014  51.122  0.00  0.00    +0.018 C
ATOM     14  C   UNL A   1      -8.352 -11.871  53.707  0.00  0.00    +0.020 C
ENDROOT
TORSDOF 0
ENDMDL
MODEL 3
REMARK VINA RESULT:    -5.486      1.753      4.439
REMARK INTER + INTRA:          -5.486
REMARK INTER:                  -5.486
REMARK INTRA:                   0.000
REMARK UNBOUND:                 0.000
REMARK  Name = Caffeine
REMARK  3 active torsions:
REMARK  status: ('A' for Active; 'I' for Inactive)
REMARK    1  A    between atoms: C_1  and  N_2
REMARK    2  A    between atoms: N_9  and  C_14
REMARK    3  A    between atoms: N_12  and  C_13
REMARK                            x       y       z     vdW  Elec       q    Type
REMARK                         _______ _______ _______ _____ _____    ______ ____
ROOT
ATOM      1  C   UNL A   1      -6.455  -7.574  50.485  0.00  0.00    +0.013 C
ATOM      2  N   UNL A   1      -7.085  -7.333  51.758  0.00  0.00    -0.328 N
ATOM      3  C   UNL A   1      -7.281  -6.112  52.348  0.00  0.00    +0.099 A
ATOM      4  N   UNL A   1      -7.905  -6.227  53.504  0.00  0.00    -0.218 NA
ATOM      5  C   UNL A   1      -8.108  -7.566  53.650  0.00  0.00    +0.168 A
ATOM      6  C   UNL A   1      -7.610  -8.273  52.598  0.00  0.00    +0.151 A
ATOM      7  C   UNL A   1      -7.689  -9.687  52.501  0.00  0.00    +0.282 A
ATOM      8  O   UNL A   1      -7.235 -10.314  51.547  0.00  0.00    -0.265 OA
ATOM      9  N   UNL A   1      -8.330 -10.269  53.598  0.00  0.00    -0.262 N
ATOM     10  C   UNL A   1      -8.859  -9.575  54.705  0.00  0.00    +0.333 A
ATOM     11  O   UNL A   1      -9.408 -10.181  55.630  0.00  0.00    -0.246 OA
ATOM     12  N   UNL A   1      -8.733  -8.184  54.706  0.00  0.00    -0.280 N
ATOM     13  C   UNL A   1      -9.260  -7.398  55.807  0.00  0.00    +0.018 C
ATOM     14  C   UNL A   1      -8.479 -11.711  53.615  0.00  0.00    +0.020 C
ENDROOT
TORSDOF 0
ENDMDL
MODEL 4
REMARK VINA RESULT:    -5.473      1.689      3.099
REMARK INTER + INTRA:          -5.473
REMARK INTER:                  -5.473
REMARK INTRA:                   0.000
REMARK UNBOUND:                 0.000
REMARK  Name = Caffeine
REMARK  3 active torsions:
REMARK  status: ('A' for Active; 'I' for Inactive)
REMARK    1  A    between atoms: C_1  and  N_2
REMARK    2  A    between atoms: N_9  and  C_14
REMARK    3  A    between atoms: N_12  and  C_13
REMARK                            x       y       z     vdW  Elec       q    Type
REMARK                         _______ _______ _______ _____ _____    ______ ____
ROOT
ATOM      1  C   UNL A   1      -8.116 -12.735  52.896  0.00  0.00    +0.013 C
ATOM      2  N   UNL A   1      -8.476 -11.583  53.684  0.00  0.00    -0.328 N
ATOM      3  C   UNL A   1      -9.106 -11.597  54.900  0.00  0.00    +0.099 A
ATOM      4  N   UNL A   1      -9.276 -10.378  55.373  0.00  0.00    -0.218 NA
ATOM      5  C   UNL A   1      -8.737  -9.565  54.420  0.00  0.00    +0.168 A
ATOM      6  C   UNL A   1      -8.242 -10.275  53.369  0.00  0.00    +0.151 A
ATOM      7  C   UNL A   1      -7.627  -9.671  52.241  0.00  0.00    +0.282 A
ATOM      8  O   UNL A   1      -7.186 -10.321  51.297  0.00  0.00    -0.265 OA
ATOM      9  N   UNL A   1      -7.584  -8.277  52.330  0.00  0.00    -0.262 N
ATOM     10  C   UNL A   1      -8.083  -7.506  53.400  0.00  0.00    +0.333 A
ATOM     11  O   UNL A   1      -8.001  -6.274  53.386  0.00  0.00    -0.246 OA
ATOM     12  N   UNL A   1      -8.669  -8.194  54.464  0.00  0.00    -0.280 N
ATOM     13  C   UNL A   1      -9.198  -7.471  55.606  0.00  0.00    +0.018 C
ATOM     14  C   UNL A   1      -6.974  -7.542  51.241  0.00  0.00    +0.020 C
ENDROOT
TORSDOF 0
ENDMDL
MODEL 5
REMARK VINA RESULT:    -5.450      1.703      3.914
REMARK INTER + INTRA:          -5.450
REMARK INTER:                  -5.450
REMARK INTRA:                   0.000
REMARK UNBOUND:                 0.000
REMARK  Name = Caffeine
REMARK  3 active torsions:
REMARK  status: ('A' for Active; 'I' for Inactive)
REMARK    1  A    between atoms: C_1  and  N_2
REMARK    2  A    between atoms: N_9  and  C_14
REMARK    3  A    between atoms: N_12  and  C_13
REMARK                            x       y       z     vdW  Elec       q    Type
REMARK                         _______ _______ _______ _____ _____    ______ ____
ROOT
ATOM      1  C   UNL A   1      -7.937  -5.860  53.618  0.00  0.00    +0.013 C
ATOM      2  N   UNL A   1      -7.982  -7.275  53.346  0.00  0.00    -0.328 N
ATOM      3  C   UNL A   1      -7.511  -7.899  52.221  0.00  0.00    +0.099 A
ATOM      4  N   UNL A   1      -7.682  -9.206  52.285  0.00  0.00    -0.218 NA
ATOM      5  C   UNL A   1      -8.283  -9.412  53.490  0.00  0.00    +0.168 A
ATOM      6  C   UNL A   1      -8.486  -8.246  54.163  0.00  0.00    +0.151 A
ATOM      7  C   UNL A   1      -9.096  -8.180  55.443  0.00  0.00    +0.282 A
ATOM      8  O   UNL A   1      -9.276  -7.121  56.040  0.00  0.00    -0.265 OA
ATOM      9  N   UNL A   1      -9.462  -9.436  55.933  0.00  0.00    -0.262 N
ATOM     10  C   UNL A   1      -9.269 -10.666  55.270  0.00  0.00    +0.333 A
ATOM     11  O   UNL A   1      -9.630 -11.728  55.786  0.00  0.00    -0.246 OA
ATOM     12  N   UNL A   1      -8.658 -10.625  54.015  0.00  0.00    -0.280 N
ATOM     13  C   UNL A   1      -8.418 -11.849  53.274  0.00  0.00    +0.018 C
ATOM     14  C   UNL A   1     -10.091  -9.503  57.237  0.00  0.00    +0.020 C
ENDROOT
TORSDOF 0
ENDMDL
MODEL 6
REMARK VINA RESULT:    -5.443      0.980      3.430
REMARK INTER + INTRA:          -5.443
REMARK INTER:                  -5.443
REMARK INTRA:                   0.000
REMARK UNBOUND:                 0.000
REMARK  Name = Caffeine
REMARK  3 active torsions:
REMARK  status: ('A' for Active; 'I' for Inactive)
REMARK    1  A    between atoms: C_1  and  N_2
REMARK    2  A    between atoms: N_9  and  C_14
REMARK    3  A    between atoms: N_12  and  C_13
REMARK                            x       y       z     vdW  Elec       q    Type
REMARK                         _______ _______ _______ _____ _____    ______ ____
ROOT
ATOM      1  C   UNL A   1      -6.451  -7.097  50.785  0.00  0.00    +0.013 C
ATOM      2  N   UNL A   1      -7.042  -8.120  51.609  0.00  0.00    -0.328 N
ATOM      3  C   UNL A   1      -7.036  -9.467  51.358  0.00  0.00    +0.099 A
ATOM      4  N   UNL A   1      -7.642 -10.142  52.316  0.00  0.00    -0.218 NA
ATOM      5  C   UNL A   1      -8.047  -9.187  53.200  0.00  0.00    +0.168 A
ATOM      6  C   UNL A   1      -7.699  -7.936  52.792  0.00  0.00    +0.151 A
ATOM      7  C   UNL A   1      -8.002  -6.762  53.531  0.00  0.00    +0.282 A
ATOM      8  O   UNL A   1      -7.684  -5.638  53.151  0.00  0.00    -0.265 OA
ATOM      9  N   UNL A   1      -8.692  -7.032  54.715  0.00  0.00    -0.262 N
ATOM     10  C   UNL A   1      -9.070  -8.310  55.174  0.00  0.00    +0.333 A
ATOM     11  O   UNL A   1      -9.683  -8.447  56.237  0.00  0.00    -0.246 OA
ATOM     12  N   UNL A   1      -8.724  -9.403  54.376  0.00  0.00    -0.280 N
ATOM     13  C   UNL A   1      -9.071 -10.752  54.784  0.00  0.00    +0.018 C
ATOM     14  C   UNL A   1      -9.055  -5.914  55.563  0.00  0.00    +0.020 C
ENDROOT
TORSDOF 0
ENDMDL
MODEL 7
REMARK VINA RESULT:    -5.383      1.720      4.104
REMARK INTER + INTRA:          -5.383
REMARK INTER:                  -5.383
REMARK INTRA:                   0.000
REMARK UNBOUND:                 0.000
REMARK  Name = Caffeine
REMARK  3 active torsions:
REMARK  status: ('A' for Active; 'I' for Inactive)
REMARK    1  A    between atoms: C_1  and  N_2
REMARK    2  A    between atoms: N_9  and  C_14
REMARK    3  A    between atoms: N_12  and  C_13
REMARK                            x       y       z     vdW  Elec       q    Type
REMARK                         _______ _______ _______ _____ _____    ______ ____
ROOT
ATOM      1  C   UNL A   1      -8.717  -5.650  55.003  0.00  0.00    +0.013 C
ATOM      2  N   UNL A   1      -8.771  -7.089  54.941  0.00  0.00    -0.328 N
ATOM      3  C   UNL A   1      -9.345  -7.920  55.867  0.00  0.00    +0.099 A
ATOM      4  N   UNL A   1      -9.248  -9.185  55.509  0.00  0.00    -0.218 NA
ATOM      5  C   UNL A   1      -8.587  -9.153  54.318  0.00  0.00    +0.168 A
ATOM      6  C   UNL A   1      -8.275  -7.880  53.945  0.00  0.00    +0.151 A
ATOM      7  C   UNL A   1      -7.585  -7.567  52.744  0.00  0.00    +0.282 A
ATOM      8  O   UNL A   1      -7.308  -6.415  52.419  0.00  0.00    -0.265 OA
ATOM      9  N   UNL A   1      -7.264  -8.700  51.993  0.00  0.00    -0.262 N
ATOM     10  C   UNL A   1      -7.569 -10.032  52.343  0.00  0.00    +0.333 A
ATOM     11  O   UNL A   1      -7.240 -10.971  51.611  0.00  0.00    -0.246 OA
ATOM     12  N   UNL A   1      -8.251 -10.237  53.543  0.00  0.00    -0.280 N
ATOM     13  C   UNL A   1      -8.608 -11.578  53.968  0.00  0.00    +0.018 C
ATOM     14  C   UNL A   1      -6.562  -8.511  50.739  0.00  0.00    +0.020 C
ENDROOT
TORSDOF 0
ENDMDL
MODEL 8
REMARK VINA RESULT:    -5.364      1.976      3.500
REMARK INTER + INTRA:          -5.364
REMARK INTER:                  -5.364
REMARK INTRA:                   0.000
REMARK UNBOUND:                 0.000
REMARK  Name = Caffeine
REMARK  3 active torsions:
REMARK  status: ('A' for Active; 'I' for Inactive)
REMARK    1  A    between atoms: C_1  and  N_2
REMARK    2  A    between atoms: N_9  and  C_14
REMARK    3  A    between atoms: N_12  and  C_13
REMARK                            x       y       z     vdW  Elec       q    Type
REMARK                         _______ _______ _______ _____ _____    ______ ____
ROOT
ATOM      1  C   UNL A   1      -9.997 -11.239  56.761  0.00  0.00    +0.013 C
ATOM      2  N   UNL A   1      -9.681  -9.938  56.228  0.00  0.00    -0.328 N
ATOM      3  C   UNL A   1      -9.961  -8.732  56.814  0.00  0.00    +0.099 A
ATOM      4  N   UNL A   1      -9.523  -7.725  56.084  0.00  0.00    -0.218 NA
ATOM      5  C   UNL A   1      -8.949  -8.315  54.999  0.00  0.00    +0.168 A
ATOM      6  C   UNL A   1      -9.035  -9.673  55.055  0.00  0.00    +0.151 A
ATOM      7  C   UNL A   1      -8.516 -10.529  54.048  0.00  0.00    +0.282 A
ATOM      8  O   UNL A   1      -8.601 -11.753  54.109  0.00  0.00    -0.265 OA
ATOM      9  N   UNL A   1      -7.912  -9.829  53.001  0.00  0.00    -0.262 N
ATOM     10  C   UNL A   1      -7.801  -8.426  52.906  0.00  0.00    +0.333 A
ATOM     11  O   UNL A   1      -7.248  -7.898  51.936  0.00  0.00    -0.246 OA
ATOM     12  N   UNL A   1      -8.342  -7.671  53.948  0.00  0.00    -0.280 N
ATOM     13  C   UNL A   1      -8.260  -6.222  53.927  0.00  0.00    +0.018 C
ATOM     14  C   UNL A   1      -7.337 -10.592  51.912  0.00  0.00    +0.020 C
ENDROOT
TORSDOF 0
ENDMDL
MODEL 9
REMARK VINA RESULT:    -5.343      1.884      3.561
REMARK INTER + INTRA:          -5.343
REMARK INTER:                  -5.343
REMARK INTRA:                   0.000
REMARK UNBOUND:                 0.000
REMARK  Name = Caffeine
REMARK  3 active torsions:
REMARK  status: ('A' for Active; 'I' for Inactive)
REMARK    1  A    between atoms: C_1  and  N_2
REMARK    2  A    between atoms: N_9  and  C_14
REMARK    3  A    between atoms: N_12  and  C_13
REMARK                            x       y       z     vdW  Elec       q    Type
REMARK                         _______ _______ _______ _____ _____    ______ ____
ROOT
ATOM      1  C   UNL A   1      -8.325 -12.223  50.311  0.00  0.00    +0.013 C
ATOM      2  N   UNL A   1      -8.266 -10.934  50.950  0.00  0.00    -0.328 N
ATOM      3  C   UNL A   1      -7.957  -9.743  50.346  0.00  0.00    +0.099 A
ATOM      4  N   UNL A   1      -8.011  -8.739  51.200  0.00  0.00    -0.218 NA
ATOM      5  C   UNL A   1      -8.362  -9.316  52.383  0.00  0.00    +0.168 A
ATOM      6  C   UNL A   1      -8.520 -10.663  52.264  0.00  0.00    +0.151 A
ATOM      7  C   UNL A   1      -8.885 -11.504  53.348  0.00  0.00    +0.282 A
ATOM      8  O   UNL A   1      -9.024 -12.719  53.228  0.00  0.00    -0.265 OA
ATOM      9  N   UNL A   1      -9.062 -10.801  54.542  0.00  0.00    -0.262 N
ATOM     10  C   UNL A   1      -8.909  -9.409  54.708  0.00  0.00    +0.333 A
ATOM     11  O   UNL A   1      -9.086  -8.878  55.808  0.00  0.00    -0.246 OA
ATOM     12  N   UNL A   1      -8.550  -8.668  53.580  0.00  0.00    -0.280 N
ATOM     13  C   UNL A   1      -8.381  -7.229  53.668  0.00  0.00    +0.018 C
ATOM     14  C   UNL A   1      -9.442 -11.549  55.724  0.00  0.00    +0.020 C
ENDROOT
TORSDOF 0
ENDMDL
